  USGS MODFLOW MODEL BATCH-MODE REPORT

 name.nam                                                                                                                                                                                                
