  M2Kto2005 converter version 1.2       
 
  MODOUT: 0
  Maximum number of variables: 2000
  Maximum number of file names: 300
 

 OPENING mrgb.glb
 FILE TYPE:GLOBAL   UNIT  11

 OPENING mrgb.lst
 FILE TYPE:LIST   UNIT  12

 OPENING mrgb.dis
 FILE TYPE:DIS   UNIT  13

 OPENING mrgb.bs6
 FILE TYPE:BAS6   UNIT  14

 OPENING mrgb.lpf
 FILE TYPE:LPF   UNIT  15

 OPENING mrgb.hb6
 FILE TYPE:HFB6   UNIT  16

 OPENING mrgb.ets
 FILE TYPE:ETS   UNIT  17

 OPENING mrgb.rch
 FILE TYPE:RCH   UNIT  18

 OPENING mrgb.wel
 FILE TYPE:WEL   UNIT  19

 OPENING mrgb.riv
 FILE TYPE:RIV   UNIT  20

 OPENING mrgb.drn
 FILE TYPE:DRN   UNIT  21

 OPENING mrgb.oc
 FILE TYPE:OC   UNIT  22

 OPENING mrgb.pcg
 FILE TYPE:PCG   UNIT  30

 OPENING zones
 FILE TYPE:ZONE   UNIT  31

 OPENING mults
 FILE TYPE:MULT   UNIT  32

 OPENING mrgb.obs
 FILE TYPE:OBS   UNIT  33

 OPENING mrgb.hob
 FILE TYPE:HOB   UNIT  34

 OPENING mrgb.rob
 FILE TYPE:RVOB   UNIT  35

 OPENING cbcbud
 FILE TYPE:DATA(BINARY)   UNIT  50
  MODINP: 0

 DISCRETIZATION INPUT DATA READ FROM UNIT 13
 # Discretization file
    9 LAYERS       156 ROWS        80 COLUMNS
  52 STRESS PERIOD(S) IN SIMULATION
 MODEL TIME UNIT IS DAYS
 MODEL LENGTH UNIT IS FEET

 OBSERVATION PACKAGE,  INPUT READ FROM UNIT  33
 #  Observation process for all observations
 OUTNAM: NONE
 ISCALS= -1

 HOB -- HEAD OBSERVATION PACKAGE,  INPUT READ FROM UNIT  34
 # Head-Observation Package of the Observation Process of MODFLOW-2000.
 # The observations with 4-character IDs
 #  weights around the basin margens are reduced so they do not overly influence
 #   Because of the grid size (1000 m X 1000 m) and the little information at th

 NUMBER OF HEAD OBSERVATIONS: 1328
 A001         2 7 35 1 0.00000000E+00 0.294000000 -0.499000013 5521.50000 3.00000000 2 1
 A002         1 7 71 1 0.00000000E+00 0.490999997 0.239999995 5235.43018 4.00000000 2 1
 A003         3 9 72 1 0.00000000E+00 -0.123000003 0.250999987 5249.49023 4.00000000 2 1
 A005         2 9 36 1 0.00000000E+00 0.486999989 0.259999990 5553.02002 4.00000000 2 1
 A006         3 10 33 1 0.00000000E+00 -0.419999987 -0.180999994 5490.00000 5.00000000 2 1
 A007         2 9 72 1 0.00000000E+00 0.342000008 -0.123999998 5237.00977 4.00000000 2 1
 A008         2 10 73 1 0.00000000E+00 -4.39999998E-02 -0.368000001 5246.43994 4.00000000 2 1
 A013         1 12 70 1 0.00000000E+00 -0.180000007 0.128000006 5207.33008 4.00000000 2 1
 A014         2 12 70 1 0.00000000E+00 0.189999998 0.356000006 5200.00000 3.00000000 2 1
 A017         1 13 76 1 0.00000000E+00 0.495000005 -0.462000012 5359.20996 10.0000000 2 1
 A019         1 14 36 1 0.00000000E+00 -4.00000019E-03 0.160999998 5380.00000 4.00000000 2 1
 A021         1 15 49 1 0.00000000E+00 -0.120999999 -7.10000023E-02 5228.00000 4.00000000 2 1
 A022         1 15 46 1 0.00000000E+00 6.89999983E-02 -0.312999994 5320.00000 4.00000000 2 1
 A024         2 16 35 1 0.00000000E+00 -0.180999994 -0.171000004 5385.00000 3.00000000 2 1
 A025         1 16 30 1 0.00000000E+00 0.497999996 0.405000001 5441.00000 4.00000000 2 1
 A028         1 18 36 1 0.00000000E+00 0.381999999 0.287999988 5384.89990 4.00000000 2 1
 A032         1 19 36 1 0.00000000E+00 0.277999997 -0.188999996 5389.91016 4.00000000 2 1
 A039         2 23 38 1 0.00000000E+00 7.59999976E-02 0.428000003 5299.95996 4.00000000 2 1
 A041         1 23 33 1 0.00000000E+00 0.170000002 -0.483000010 5438.00000 10.0000000 2 1
 A043         1 24 48 1 0.00000000E+00 2.19999999E-02 0.340999991 5207.00000 4.00000000 2 1
 A045         3 25 41 1 0.00000000E+00 1.99999996E-02 -4.00000019E-03 5290.60010 3.00000000 2 1
 A047         4 25 69 1 0.00000000E+00 -0.142000005 0.402000010 5148.79980 3.00000000 2 1
 A049         1 27 41 1 0.00000000E+00 -0.250000000 0.123000003 5266.00000 4.00000000 2 1
 A054         1 28 45 1 0.00000000E+00 1.09999999E-02 0.202000007 5220.66992 4.00000000 2 1
 A056         1 29 41 1 0.00000000E+00 0.437000006 0.377000004 5250.00000 4.00000000 2 1
 A057         1 29 56 1 0.00000000E+00 0.319000006 -2.30000000E-02 5083.60010 5.00000000 2 1
 A060         3 31 63 1 0.00000000E+00 0.337000012 -1.79999992E-02 5205.00000 5.00000000 2 1
 A066         1 38 49 1 0.00000000E+00 0.291000009 -5.49999997E-02 5073.29980 4.00000000 2 1
 A068         1 39 54 1 0.00000000E+00 8.29999968E-02 0.389999986 5063.43994 4.00000000 2 1
 A069         4 39 30 1 0.00000000E+00 0.477999985 -0.104999997 4972.00000 3.00000000 2 1
 A074         1 44 42 1 0.00000000E+00 -0.294000000 0.449000001 5008.00000 5.00000000 2 1
 A076         1 46 53 1 0.00000000E+00 -0.303000003 -0.259000003 5063.00000 4.00000000 2 1
 A079         5 46 27 1 0.00000000E+00 0.395999998 -5.90000004E-02 4955.00000 5.00000000 2 1
 A084         2 52 44 1 0.00000000E+00 -0.266000003 4.80000004E-02 4989.37988 4.00000000 2 1
 A094         1 56 53 1 0.00000000E+00 -0.203999996 0.216999993 4989.50000 4.00000000 2 1
 A095         2 56 43 1 0.00000000E+00 0.460999995 0.497999996 4978.00000 4.00000000 2 1
 A097         1 57 36 1 0.00000000E+00 0.268999994 0.453999996 4967.39990 4.00000000 2 1
 A101         1 58 43 1 0.00000000E+00 -0.118000001 0.296999991 4983.00000 4.00000000 2 1
 A103         1 58 51 1 0.00000000E+00 0.456999987 0.101999998 4967.10010 4.00000000 2 1
 A107         2 59 42 1 0.00000000E+00 -0.128999993 0.490000010 4969.00000 4.00000000 2 1
 A116         3 60 44 1 0.00000000E+00 -0.203999996 -0.144999996 4968.97021 3.00000000 2 1
 A120         2 60 44 1 0.00000000E+00 7.40000010E-02 -1.79999992E-02 4970.00000 4.00000000 2 1
 A127         5 60 40 1 0.00000000E+00 0.479999989 -8.50000009E-02 4953.00000 3.00000000 2 1
 A142         3 63 44 1 0.00000000E+00 -0.300000012 -0.115999997 4948.62988 4.00000000 2 1
 A143         3 63 40 1 0.00000000E+00 -0.172999993 -0.259999990 4943.45996 3.00000000 2 1
 A145         2 63 41 1 0.00000000E+00 0.135000005 0.206000000 4943.74023 4.00000000 2 1
 A146         1 63 46 1 0.00000000E+00 0.252000004 0.335999995 4965.29980 4.00000000 2 1
 A149         1 64 46 1 0.00000000E+00 -0.499000013 -0.497999996 4963.39990 4.00000000 2 1
 A153         1 64 39 1 0.00000000E+00 9.39999968E-02 -4.19999994E-02 4946.77979 4.00000000 2 1
 A154         3 65 43 1 0.00000000E+00 -0.384000003 -0.301999986 4930.60010 3.00000000 2 1
 A155         1 65 47 1 0.00000000E+00 -0.266000003 0.298000008 4957.50000 4.00000000 2 1
 A157         1 65 48 1 0.00000000E+00 0.351000011 -0.321999997 4961.00000 4.00000000 2 1
 A168         3 66 26 1 0.00000000E+00 0.441000015 0.219999999 4913.00000 3.00000000 2 1
 A169         4 66 26 1 0.00000000E+00 0.441000015 0.219999999 4916.00000 3.00000000 2 1
 A171         5 67 34 1 0.00000000E+00 0.338999987 -0.145999998 4924.45020 3.00000000 2 1
 A177         4 68 50 1 0.00000000E+00 9.49999988E-02 0.159999996 4946.70020 3.00000000 2 1
 A178         4 68 52 1 0.00000000E+00 0.368999988 0.107000001 4967.70020 3.00000000 2 1
 A181         5 69 43 1 0.00000000E+00 -0.307000011 -0.119999997 4923.33008 3.00000000 2 1
 A187         4 70 46 1 0.00000000E+00 -0.352999985 -0.463999987 4945.45020 3.00000000 2 1
 A190         4 70 52 1 0.00000000E+00 0.223000005 8.60000029E-02 4962.79980 3.00000000 2 1
 A191         4 71 50 1 0.00000000E+00 -0.370999992 -0.467000008 4952.00000 3.00000000 2 1
 A193         2 71 43 1 0.00000000E+00 0.164000005 -0.294999987 4910.00000 4.00000000 2 1
 A196         4 72 51 1 0.00000000E+00 -0.170000002 0.432000011 4978.50000 3.00000000 2 1
 A200         5 73 48 1 0.00000000E+00 -0.421999991 -0.259999990 4950.00000 5.00000000 2 1
 A201         5 73 22 1 0.00000000E+00 -0.137999997 0.244000003 4932.00000 3.00000000 2 1
 A203         1 74 22 1 0.00000000E+00 -0.243000001 -0.238000005 4923.00000 3.00000000 2 1
 A206         1 75 21 1 0.00000000E+00 -0.287000000 -0.351999998 4918.00000 3.00000000 2 1
 A207         1 75 22 1 0.00000000E+00 -0.162000000 0.140000001 4929.00000 3.00000000 2 1
 A208         3 75 55 1 0.00000000E+00 -0.428000003 -0.375000000 4964.00000 3.00000000 2 1
 A214         1 77 30 1 0.00000000E+00 0.377000004 5.79999983E-02 4871.39990 4.00000000 2 1
 A218         2 80 36 1 0.00000000E+00 3.00000003E-03 -0.144999996 4895.54980 5.00000000 2 1
 A222         1 81 29 1 0.00000000E+00 0.453999996 0.449000001 4887.70996 4.00000000 2 1
 A224         1 84 51 1 0.00000000E+00 0.495000005 -2.40000002E-02 5327.29980 10.0000000 2 1
 A228         1 86 18 1 0.00000000E+00 -0.356999993 -0.254999995 4975.39990 10.0000000 2 1
 A229         1 85 42 1 0.00000000E+00 0.465000004 0.340999991 4879.29980 5.00000000 2 1
 A230         1 86 19 1 0.00000000E+00 -0.169000000 0.442000002 4842.50000 4.00000000 2 1
 A231         1 86 25 1 0.00000000E+00 0.300000012 -0.289999992 4870.50000 4.00000000 2 1
 A234         1 89 16 1 0.00000000E+00 0.252999991 -3.50000001E-02 4970.79980 10.0000000 2 1
 A235         1 89 43 1 0.00000000E+00 0.109999999 -0.428000003 4863.52979 4.00000000 2 1
 A236         1 89 16 1 0.00000000E+00 0.409000009 0.395999998 4970.70020 10.0000000 2 1
 A237         2 90 10 1 0.00000000E+00 -0.389999986 -0.193000004 4991.39990 10.0000000 2 1
 A241         1 92 45 1 0.00000000E+00 -0.298000008 5.90000004E-02 4842.50000 5.00000000 2 1
 A243         4 94 33 1 0.00000000E+00 -0.375999987 -6.00000005E-03 4852.00000 3.00000000 2 1
 A247         1 95 12 1 0.00000000E+00 -7.19999969E-02 -0.280000001 4983.45020 10.0000000 2 1
 A254         1 96 18 1 0.00000000E+00 0.206000000 -0.272000015 4841.20020 4.00000000 2 1
 A256         2 97 49 1 0.00000000E+00 -0.393999994 0.326000005 4901.60010 3.00000000 2 1
 A259         1 98 12 1 0.00000000E+00 -0.107000001 -0.363000005 4973.89014 10.0000000 2 1
 A260         1 99 46 1 0.00000000E+00 8.20000023E-02 0.388000011 4843.22998 4.00000000 2 1
 A264         1 100 23 1 0.00000000E+00 0.384000003 0.428999990 4832.31006 5.00000000 2 1
 A265         3 100 43 1 0.00000000E+00 0.414000005 4.10000011E-02 4830.00000 3.00000000 2 1
 A266         3 101 33 1 0.00000000E+00 7.00000022E-03 -0.437000006 4827.95020 5.00000000 2 1
 A272         1 103 11 1 0.00000000E+00 0.481000006 -0.492000014 5043.50977 10.0000000 2 1
 A274         1 104 16 1 0.00000000E+00 7.99999982E-02 6.49999976E-02 4839.31982 4.00000000 2 1
 A275         1 104 12 1 0.00000000E+00 0.134000003 0.333000004 4845.20020 5.00000000 2 1
 A276         2 104 41 1 0.00000000E+00 6.10000007E-02 0.344000012 4824.79980 3.00000000 2 1
 A281         3 106 31 1 0.00000000E+00 -0.361000001 0.293000013 4815.20020 5.00000000 2 1
 A283         3 107 31 1 0.00000000E+00 -6.30000010E-02 0.317999989 4808.81982 3.00000000 2 1
 A285         3 107 30 1 0.00000000E+00 0.184000000 2.30000000E-02 4812.87988 4.00000000 2 1
 A290         1 113 18 1 0.00000000E+00 -0.423000008 8.10000002E-02 4829.27002 4.00000000 2 1
 A291         4 113 37 1 0.00000000E+00 5.20000011E-02 -0.321999997 4800.00000 3.00000000 2 1
 A298         1 116 30 1 0.00000000E+00 0.449999988 -0.233999997 4800.10010 4.00000000 2 1
 A305         1 121 24 1 0.00000000E+00 0.388000011 0.296999991 4797.62988 4.00000000 2 1
 A307         1 122 20 1 0.00000000E+00 -0.308999985 -0.407999992 4821.56982 4.00000000 2 1
 A308         1 122 17 1 0.00000000E+00 8.79999995E-02 -0.256999999 4810.20996 5.00000000 2 1
 A315         1 127 38 1 0.00000000E+00 -4.89999987E-02 -9.60000008E-02 4788.41016 4.00000000 2 1
 A323         2 135 14 1 0.00000000E+00 -0.407999992 0.123999998 4773.00000 4.00000000 2 1
 A328         1 138 18 1 0.00000000E+00 -3.29999998E-02 0.370999992 4765.08008 4.00000000 2 1
 A338         3 152 14 1 0.00000000E+00 -0.483000010 -0.497999996 4883.68018 5.00000000 2 1
 A340         1 153 17 1 0.00000000E+00 -0.425999999 -4.00000019E-03 4814.47998 4.00000000 2 1
 A004         -2 9 71 1 0.00000000E+00 3.79999988E-02 -0.256000012 5222.37012 4.00000000 2 1
 A009         -2 10 71 1 0.00000000E+00 0.118000001 0.00000000E+00 5222.10010 4.00000000 2 1
 A010         -2 10 70 1 0.00000000E+00 0.428999990 0.372999996 5214.02002 4.00000000 2 1
 A011         -2 11 72 1 0.00000000E+00 -0.268999994 0.133000001 5236.20996 4.00000000 2 1
 A012         -2 12 34 1 0.00000000E+00 -0.104000002 -0.175999999 5471.70020 4.00000000 2 1
 A015         -2 13 32 1 0.00000000E+00 -0.486000001 -6.10000007E-02 5450.00000 4.00000000 2 1
 A016         -2 13 38 1 0.00000000E+00 6.89999983E-02 -0.331999987 5383.00000 4.00000000 2 1
 A018         -2 14 35 1 0.00000000E+00 -3.00000003E-03 0.280999988 5409.00000 4.00000000 2 1
 A020         -2 14 42 1 0.00000000E+00 0.363000005 0.217999995 5330.00000 3.00000000 2 1
 A023         -2 15 39 1 0.00000000E+00 0.261000007 0.479000002 5393.72998 4.00000000 2 1
 A026         -2 17 67 1 0.00000000E+00 -4.19999994E-02 0.458999991 5179.00000 3.00000000 2 1
 A027         -2 18 37 1 0.00000000E+00 -0.266999990 0.243000001 5373.00000 3.00000000 2 1
 A029         -2 18 36 1 0.00000000E+00 0.412999988 0.312999994 5375.00000 3.00000000 2 1
 A030         -2 19 36 1 0.00000000E+00 -0.463000000 0.463999987 5390.00000 3.00000000 2 1
 A031         -2 19 72 1 0.00000000E+00 -0.455000013 0.243000001 5221.89014 4.00000000 2 1
 A033         -2 19 70 1 0.00000000E+00 0.389999986 -0.469000012 5159.00000 4.00000000 2 1
 A034         -2 20 35 1 0.00000000E+00 -0.226999998 -4.39999998E-02 5382.41992 3.00000000 2 1
 A035         -2 20 35 1 0.00000000E+00 -0.226999998 -4.39999998E-02 5377.52002 3.00000000 2 1
 A036         -2 20 35 1 0.00000000E+00 -0.226999998 -4.39999998E-02 5381.41992 3.00000000 2 1
 A037         -2 20 46 1 0.00000000E+00 0.442999989 -0.356000006 5155.00000 3.00000000 2 1
 A038         -2 22 39 1 0.00000000E+00 -0.499000013 -0.246000007 5333.39990 5.00000000 2 1
 A040         -2 23 41 1 0.00000000E+00 7.40000010E-02 0.345999986 5300.52979 3.00000000 2 1
 A042         -2 24 46 1 0.00000000E+00 -0.437999994 7.59999976E-02 5140.00000 4.00000000 2 1
 A044         -2 25 41 1 0.00000000E+00 1.99999996E-02 -4.00000019E-03 5305.85986 3.00000000 2 1
 A046         -2 25 41 1 0.00000000E+00 1.99999996E-02 -4.00000019E-03 5315.45020 3.00000000 2 1
 A048         -2 27 63 1 0.00000000E+00 -0.479999989 -0.486999989 5142.00000 3.00000000 2 1
 A050         -2 27 46 1 0.00000000E+00 0.238000005 -9.49999988E-02 5212.27002 4.00000000 2 1
 A051         -2 27 60 1 0.00000000E+00 0.391999990 0.225999996 5127.00000 3.00000000 2 1
 A052         -2 27 60 1 0.00000000E+00 0.391999990 0.225999996 5135.20020 3.00000000 2 1
 A053         -2 28 37 1 0.00000000E+00 -0.259000003 0.500000000 5233.00000 4.00000000 2 1
 A055         -2 29 65 1 0.00000000E+00 -0.202000007 -0.214000002 5130.00000 3.00000000 2 1
 A058         -2 30 53 1 0.00000000E+00 -0.458000004 -0.218999997 5085.00000 3.00000000 2 1
 A059         -2 30 64 1 0.00000000E+00 0.223000005 -0.467999995 5219.89014 5.00000000 2 1
 A061         -2 32 46 1 0.00000000E+00 0.119000003 -8.79999995E-02 5139.93994 4.00000000 2 1
 A062         -2 32 59 1 0.00000000E+00 0.492000014 -0.143999994 5096.00000 4.00000000 2 1
 A063         -2 33 59 1 0.00000000E+00 -4.60000001E-02 0.286000013 5121.00000 5.00000000 2 1
 A064         -2 35 59 1 0.00000000E+00 -0.252000004 -0.338999987 5087.58984 5.00000000 2 1
 A065         -2 38 50 1 0.00000000E+00 7.29999989E-02 0.104000002 5036.74023 4.00000000 2 1
 A070         -2 40 54 1 0.00000000E+00 -2.09999997E-02 0.114000000 5050.00000 4.00000000 2 1
 A071         -2 40 50 1 0.00000000E+00 0.143000007 -0.397000015 5044.45020 4.00000000 2 1
 A072         -2 42 51 1 0.00000000E+00 -0.345999986 -0.133000001 5039.00000 4.00000000 2 1
 A073         -2 42 35 1 0.00000000E+00 -8.10000002E-02 -1.40000004E-02 4956.37012 5.00000000 2 1
 A075         -2 45 28 1 0.00000000E+00 -0.209999993 0.228000000 4953.85010 3.00000000 2 1
 A077         -2 46 47 1 0.00000000E+00 1.70000009E-02 -0.310999990 5013.72021 4.00000000 2 1
 A078         -2 46 47 1 0.00000000E+00 1.70000009E-02 -0.310999990 5016.89014 3.00000000 2 1
 A080         -2 47 46 1 0.00000000E+00 -0.365000010 0.185000002 5021.87988 3.00000000 2 1
 A081         -2 48 47 1 0.00000000E+00 -6.80000037E-02 -0.358999997 5008.00000 4.00000000 2 1
 A082         -2 48 50 1 0.00000000E+00 0.172999993 0.148000002 5035.47021 5.00000000 2 1
 A083         -2 50 53 1 0.00000000E+00 2.09999997E-02 -0.250000000 4995.02002 4.00000000 2 1
 A085         -2 52 43 1 0.00000000E+00 4.50000018E-02 -0.314999998 4987.79980 4.00000000 2 1
 A086         -2 54 43 1 0.00000000E+00 2.09999997E-02 0.268000007 4987.70020 4.00000000 2 1
 A087         -2 55 43 1 0.00000000E+00 0.224999994 0.495999992 4983.97998 4.00000000 2 1
 A088         -2 55 30 1 0.00000000E+00 0.416000009 0.368999988 4946.60010 3.00000000 2 1
 A089         -2 55 30 1 0.00000000E+00 0.416000009 0.368999988 4945.50000 3.00000000 2 1
 A090         -2 55 30 1 0.00000000E+00 0.416000009 0.368999988 4951.00000 3.00000000 2 1
 A091         -2 55 30 1 0.00000000E+00 0.446999997 0.419000000 4962.39990 3.00000000 2 1
 A092         -2 55 41 1 0.00000000E+00 0.444000006 7.29999989E-02 4982.00000 4.00000000 2 1
 A096         -2 57 39 1 0.00000000E+00 5.20000011E-02 5.40000014E-02 4971.39990 4.00000000 2 1
 A098         -2 58 29 1 0.00000000E+00 -0.483999997 7.99999982E-02 4943.29980 3.00000000 2 1
 A099         -2 57 42 1 0.00000000E+00 0.451000005 -0.319000006 4975.00000 4.00000000 2 1
 A100         -2 58 45 1 0.00000000E+00 -0.244000003 0.317000002 4968.04980 4.00000000 2 1
 A102         -2 58 43 1 0.00000000E+00 6.70000017E-02 0.323000014 4980.50000 4.00000000 2 1
 A104         -2 59 29 1 0.00000000E+00 -0.279000014 -0.375000000 4942.00000 3.00000000 2 1
 A105         -2 59 44 1 0.00000000E+00 -0.316000015 0.435000002 4973.35010 4.00000000 2 1
 A106         -2 59 42 1 0.00000000E+00 -0.128999993 0.490000010 4969.00000 4.00000000 2 1
 A108         -2 59 47 1 0.00000000E+00 -0.104000002 0.136999995 4956.10010 3.00000000 2 1
 A109         -2 59 26 1 0.00000000E+00 0.151999995 0.377000004 4943.89014 3.00000000 2 1
 A110         -2 59 26 1 0.00000000E+00 0.151999995 0.377000004 4943.89014 3.00000000 2 1
 A111         -2 59 41 1 0.00000000E+00 0.428000003 0.202999994 4962.04980 3.00000000 2 1
 A112         -2 60 38 1 0.00000000E+00 -0.291999996 0.474999994 4960.18018 4.00000000 2 1
 A113         -2 60 41 1 0.00000000E+00 -0.293000013 -0.100000001 4960.00000 3.00000000 2 1
 A114         -2 60 45 1 0.00000000E+00 -0.328999996 0.270000011 4963.04980 4.00000000 2 1
 A115         -2 60 48 1 0.00000000E+00 -0.333000004 -0.305999994 4965.12988 3.00000000 2 1
 A117         -2 60 42 1 0.00000000E+00 -0.108999997 0.137999997 4962.00000 3.00000000 2 1
 A118         -2 60 49 1 0.00000000E+00 -5.60000017E-02 -0.270000011 4966.29980 3.00000000 2 1
 A119         -2 60 37 1 0.00000000E+00 0.111000001 -0.141000003 4963.00000 4.00000000 2 1
 A121         -2 60 50 1 0.00000000E+00 6.59999996E-02 -0.384999990 4960.00000 3.00000000 2 1
 A122         -2 60 52 1 0.00000000E+00 6.10000007E-02 -0.238000005 4967.00000 3.00000000 2 1
 A123         -2 60 51 1 0.00000000E+00 0.125000000 -0.273999989 4963.00000 3.00000000 2 1
 A124         -2 60 46 1 0.00000000E+00 0.256000012 0.483000010 4961.00000 3.00000000 2 1
 A125         -2 60 47 1 0.00000000E+00 0.379000008 -3.70000005E-02 4962.00000 3.00000000 2 1
 A126         -2 60 48 1 0.00000000E+00 0.377000004 -2.70000007E-02 4959.00000 3.00000000 2 1
 A128         -2 60 42 1 0.00000000E+00 0.477999985 -0.467999995 4952.35010 3.00000000 2 1
 A129         -2 61 51 1 0.00000000E+00 -0.287999988 -0.273000002 4965.85010 3.00000000 2 1
 A130         -2 61 49 1 0.00000000E+00 -0.162000000 0.237000003 4965.00000 3.00000000 2 1
 A131         -2 61 40 1 0.00000000E+00 -8.79999995E-02 0.497000009 4955.00000 3.00000000 2 1
 A132         -2 61 46 1 0.00000000E+00 -6.40000030E-02 0.356999993 4960.20020 3.00000000 2 1
 A133         -2 61 52 1 0.00000000E+00 -7.40000010E-02 -5.99999987E-02 4975.00000 3.00000000 2 1
 A134         -2 61 48 1 0.00000000E+00 5.60000017E-02 0.252000004 4963.04980 4.00000000 2 1
 A135         -2 61 48 1 0.00000000E+00 0.458000004 0.228000000 4955.00000 3.00000000 2 1
 A136         -2 62 45 1 0.00000000E+00 -0.476000011 0.474000007 4969.00000 4.00000000 2 1
 A137         -2 62 50 1 0.00000000E+00 -0.451999992 -0.458000004 4961.62012 3.00000000 2 1
 A138         -2 62 47 1 0.00000000E+00 -7.69999996E-02 0.217999995 4957.89990 4.00000000 2 1
 A139         -2 62 39 1 0.00000000E+00 0.148000002 0.184000000 4948.22998 3.00000000 2 1
 A140         -2 63 39 1 0.00000000E+00 -0.481000006 -0.119000003 4958.00000 4.00000000 2 1
 A141         -2 63 40 1 0.00000000E+00 -0.451000005 -0.108000003 4950.00000 3.00000000 2 1
 A144         -2 63 41 1 0.00000000E+00 1.20000001E-02 -0.476000011 4939.00000 3.00000000 2 1
 A147         -2 63 39 1 0.00000000E+00 0.321999997 -0.245000005 4935.00000 3.00000000 2 1
 A148         -2 63 39 1 0.00000000E+00 0.352999985 0.361999989 4952.00000 3.00000000 2 1
 A150         -2 64 41 1 0.00000000E+00 -0.246999994 0.231999993 4946.00000 4.00000000 2 1
 A151         -2 64 38 1 0.00000000E+00 9.49999988E-02 -0.305999994 4949.66992 4.00000000 2 1
 A152         -2 64 39 1 0.00000000E+00 9.39999968E-02 -0.370999992 4948.00000 3.00000000 2 1
 A156         -2 65 38 1 0.00000000E+00 0.330000013 7.40000010E-02 4928.45020 4.00000000 2 1
 A158         -2 66 42 1 0.00000000E+00 -0.456999987 1.70000009E-02 4931.00000 4.00000000 2 1
 A159         -2 66 45 1 0.00000000E+00 -0.460000008 7.50000030E-02 4951.60010 4.00000000 2 1
 A160         -2 66 39 1 0.00000000E+00 -0.361000001 -0.370000005 4939.72021 3.00000000 2 1
 A161         -2 66 43 1 0.00000000E+00 -0.365000010 -7.29999989E-02 4931.20020 4.00000000 2 1
 A162         -2 66 53 1 0.00000000E+00 -0.444000006 0.187999994 4960.00000 3.00000000 2 1
 A163         -2 66 40 1 0.00000000E+00 -0.208000004 -4.99999989E-03 4942.33008 4.00000000 2 1
 A164         -2 66 51 1 0.00000000E+00 -0.254000008 0.368999988 4956.93018 3.00000000 2 1
 A165         -2 66 52 1 0.00000000E+00 -0.256999999 0.430000007 4962.02979 3.00000000 2 1
 A166         -2 66 44 1 0.00000000E+00 -8.90000015E-02 0.469000012 4952.00000 4.00000000 2 1
 A167         -2 66 26 1 0.00000000E+00 0.409999996 0.245000005 4915.00000 3.00000000 2 1
 A170         -2 66 52 1 0.00000000E+00 0.331999987 -0.200000003 4947.85010 3.00000000 2 1
 A172         -2 67 39 1 0.00000000E+00 0.368000001 0.289000005 4918.00000 4.00000000 2 1
 A173         -2 67 43 1 0.00000000E+00 0.488000005 0.130999997 4931.43994 4.00000000 2 1
 A174         -2 68 46 1 0.00000000E+00 -2.19999999E-02 0.240999997 4949.00000 3.00000000 2 1
 A175         -2 68 42 1 0.00000000E+00 0.137999997 -0.131999999 4936.50000 4.00000000 2 1
 A176         -2 68 37 1 0.00000000E+00 0.202999994 -0.238999993 4935.37012 4.00000000 2 1
 A179         -2 69 28 1 0.00000000E+00 -0.333999991 -0.289999992 4899.00000 3.00000000 2 1
 A180         -2 69 29 1 0.00000000E+00 -0.303000003 -0.252999991 4891.00000 3.00000000 2 1
 A182         -2 69 39 1 0.00000000E+00 -0.180000007 0.238999993 4930.00000 4.00000000 2 1
 A183         -2 69 46 1 0.00000000E+00 -6.40000030E-02 0.393999994 4962.20020 3.00000000 2 1
 A184         -2 69 41 1 0.00000000E+00 0.374000013 5.99999987E-02 4928.50000 4.00000000 2 1
 A185         -2 69 56 1 0.00000000E+00 0.256999999 -0.400999993 4983.83008 4.00000000 2 1
 A186         -2 69 48 1 0.00000000E+00 0.395999998 0.317000002 4942.00000 4.00000000 2 1
 A188         -2 70 51 1 0.00000000E+00 -0.268000007 -0.483000010 4956.39990 3.00000000 2 1
 A189         -2 70 43 1 0.00000000E+00 -0.195999995 0.310999990 4931.27979 3.00000000 2 1
 A192         -2 71 48 1 0.00000000E+00 -0.338000000 0.319000006 4953.00000 3.00000000 2 1
 A194         -2 71 50 1 0.00000000E+00 0.430999994 0.444999993 4954.60010 3.00000000 2 1
 A195         -2 72 42 1 0.00000000E+00 -0.463999987 -5.29999994E-02 4927.12012 4.00000000 2 1
 A197         -2 72 38 1 0.00000000E+00 0.217999995 5.29999994E-02 4928.00000 4.00000000 2 1
 A198         -2 72 43 1 0.00000000E+00 0.214000002 -9.09999982E-02 4910.33984 3.00000000 2 1
 A199         -2 72 35 1 0.00000000E+00 0.374000013 0.448000014 4923.39014 3.00000000 2 1
 A202         -2 73 27 1 0.00000000E+00 0.143999994 -5.09999990E-02 4907.00000 3.00000000 2 1
 A204         -2 74 18 1 0.00000000E+00 0.368999988 -0.159999996 5125.89990 10.0000000 2 1
 A205         -2 74 37 1 0.00000000E+00 0.319000006 0.270000011 4920.00000 3.00000000 2 1
 A209         -2 76 37 1 0.00000000E+00 0.233999997 0.169000000 4906.12988 4.00000000 2 1
 A210         -2 76 41 1 0.00000000E+00 0.263000011 -0.338999987 4916.93018 5.00000000 2 1
 A211         -2 77 36 1 0.00000000E+00 -0.333000004 0.435999990 4877.29980 4.00000000 2 1
 A212         -2 77 37 1 0.00000000E+00 -0.116999999 -0.134000003 4898.89014 4.00000000 2 1
 A213         -2 77 39 1 0.00000000E+00 4.99999989E-03 0.270000011 4908.00000 4.00000000 2 1
 A215         -2 78 39 1 0.00000000E+00 0.240999997 -0.463000000 4896.89990 4.00000000 2 1
 A216         -2 79 49 1 0.00000000E+00 -0.307999998 4.10000011E-02 4943.54004 4.00000000 2 1
 A217         -2 79 37 1 0.00000000E+00 0.323000014 -0.133000001 4908.60010 4.00000000 2 1
 A219         -2 80 37 1 0.00000000E+00 0.248999998 -0.133000001 4889.37012 4.00000000 2 1
 A220         -2 81 39 1 0.00000000E+00 8.20000023E-02 -0.360000014 4892.14990 4.00000000 2 1
 A221         -2 81 36 1 0.00000000E+00 0.391999990 0.488000005 4889.79980 5.00000000 2 1
 A223         -2 84 47 1 0.00000000E+00 -5.40000014E-02 0.328000009 4936.02002 4.00000000 2 1
 A225         -2 85 10 1 0.00000000E+00 0.162000000 -0.384000003 5016.00000 10.0000000 2 1
 A226         -2 85 39 1 0.00000000E+00 0.189999998 -2.80000009E-02 4884.62988 4.00000000 2 1
 A227         -2 86 9 1 0.00000000E+00 -0.437000006 0.488000005 5015.58984 10.0000000 2 1
 A232         -2 87 33 1 0.00000000E+00 -7.80000016E-02 -0.233999997 4870.79004 4.00000000 2 1
 A233         -2 88 36 1 0.00000000E+00 -9.00000036E-02 0.237000003 4864.47021 5.00000000 2 1
 A238         -2 90 37 1 0.00000000E+00 -0.268000007 -2.00000009E-03 4866.06006 4.00000000 2 1
 A239         -2 91 33 1 0.00000000E+00 -0.186000004 -0.437000006 4857.60010 4.00000000 2 1
 A240         -2 91 18 1 0.00000000E+00 4.80000004E-02 6.59999996E-02 4842.79980 4.00000000 2 1
 A242         -2 93 37 1 0.00000000E+00 -2.50000004E-02 0.379999995 4853.00977 3.00000000 2 1
 A244         -2 94 32 1 0.00000000E+00 -0.189999998 -0.425999999 4850.45996 4.00000000 2 1
 A245         -2 94 45 1 0.00000000E+00 0.358000010 -0.393999994 4829.00000 4.00000000 2 1
 A246         -2 95 49 1 0.00000000E+00 -0.493999988 0.170000002 4844.60010 5.00000000 2 1
 A248         -2 95 26 1 0.00000000E+00 -0.173999995 -2.99999993E-02 4829.95996 5.00000000 2 1
 A249         -2 95 36 1 0.00000000E+00 0.261000007 1.09999999E-02 4849.47021 3.00000000 2 1
 A250         -2 95 39 1 0.00000000E+00 0.444999993 -0.351000011 4843.93018 4.00000000 2 1
 A251         -2 96 38 1 0.00000000E+00 -0.245000005 -0.365999997 4846.22021 3.00000000 2 1
 A252         -2 96 34 1 0.00000000E+00 -5.90000004E-02 -6.80000037E-02 4845.47021 4.00000000 2 1
 A253         -2 96 26 1 0.00000000E+00 3.09999995E-02 0.273999989 4828.00000 3.00000000 2 1
 A255         -2 97 46 1 0.00000000E+00 -0.388999999 0.307999998 4856.00000 3.00000000 2 1
 A257         -2 97 35 1 0.00000000E+00 -8.99999961E-03 -0.155000001 4841.00000 4.00000000 2 1
 A258         -2 97 40 1 0.00000000E+00 8.10000002E-02 0.425000012 4834.60010 3.00000000 2 1
 A261         -2 99 24 1 0.00000000E+00 0.426999986 0.191000000 4845.00000 3.00000000 2 1
 A262         -2 100 34 1 0.00000000E+00 7.99999982E-02 -0.169000000 4830.08008 4.00000000 2 1
 A263         -2 100 38 1 0.00000000E+00 7.80000016E-02 0.398000002 4828.04004 4.00000000 2 1
 A267         -2 102 36 1 0.00000000E+00 -0.375999987 -0.138999999 4825.52979 4.00000000 2 1
 A268         -2 102 41 1 0.00000000E+00 -0.317999989 0.367000014 4835.00000 4.00000000 2 1
 A269         -2 103 36 1 0.00000000E+00 -0.449000001 -0.391999990 4820.12012 3.00000000 2 1
 A270         -2 103 31 1 0.00000000E+00 0.169000000 0.419999987 4822.77979 3.00000000 2 1
 A271         -2 103 39 1 0.00000000E+00 0.166999996 -9.30000022E-02 4829.24023 4.00000000 2 1
 A273         -2 104 35 1 0.00000000E+00 -0.214000002 -0.152999997 4820.14014 4.00000000 2 1
 A277         -2 104 41 1 0.00000000E+00 6.10000007E-02 0.344000012 4823.97021 3.00000000 2 1
 A278         -2 104 41 1 0.00000000E+00 6.10000007E-02 0.344000012 4823.52979 3.00000000 2 1
 A279         -2 105 40 1 0.00000000E+00 -0.196999997 -0.178000003 4819.89990 3.00000000 2 1
 A280         -2 105 39 1 0.00000000E+00 0.173999995 0.162000000 4819.50000 3.00000000 2 1
 A282         -2 107 35 1 0.00000000E+00 -0.125000000 0.101000004 4811.43018 3.00000000 2 1
 A284         -2 107 31 1 0.00000000E+00 -6.30000010E-02 0.317999989 4809.00000 3.00000000 2 1
 A286         -2 109 25 1 0.00000000E+00 0.126000002 -0.284999996 4813.50000 4.00000000 2 1
 A287         -2 110 34 1 0.00000000E+00 -0.344999999 8.60000029E-02 4807.58984 4.00000000 2 1
 A288         -2 111 43 1 0.00000000E+00 -5.29999994E-02 0.103000000 4821.20020 5.00000000 2 1
 A289         -2 111 48 1 0.00000000E+00 0.187000006 0.310999990 4970.22021 5.00000000 2 1
 A292         -2 114 14 1 0.00000000E+00 5.20000011E-02 3.90000008E-02 4841.00000 3.00000000 2 1
 A293         -2 114 41 1 0.00000000E+00 -2.40000002E-02 -0.307000011 4798.39990 4.00000000 2 1
 A294         -2 115 26 1 0.00000000E+00 -0.497999996 -7.00000003E-02 4804.00000 3.00000000 2 1
 A295         -2 115 6 1 0.00000000E+00 -0.134000003 7.00000022E-03 4855.50977 4.00000000 2 1
 A296         -2 116 36 1 0.00000000E+00 0.356999993 -3.29999998E-02 4793.04980 3.00000000 2 1
 A297         -2 116 36 1 0.00000000E+00 0.356999993 -3.29999998E-02 4792.66016 3.00000000 2 1
 A299         -2 117 25 1 0.00000000E+00 -0.492000014 -8.79999995E-02 4806.00000 3.00000000 2 1
 A300         -2 118 37 1 0.00000000E+00 -0.192000002 6.10000007E-02 4780.00000 3.00000000 2 1
 A301         -2 118 14 1 0.00000000E+00 0.282999992 -0.122000001 4795.45020 4.00000000 2 1
 A302         -2 118 37 1 0.00000000E+00 0.303000003 -0.116999999 4753.39990 3.00000000 2 1
 A303         -2 119 31 1 0.00000000E+00 -0.388000011 -0.217999995 4778.35010 3.00000000 2 1
 A304         -2 119 26 1 0.00000000E+00 -0.204999998 -0.328000009 4769.00000 3.00000000 2 1
 A306         -2 121 33 1 0.00000000E+00 0.391999990 0.196999997 4778.20996 4.00000000 2 1
 A309         -2 123 21 1 0.00000000E+00 2.09999997E-02 -0.391999990 4808.70996 5.00000000 2 1
 A310         -2 125 43 1 0.00000000E+00 -0.307999998 9.30000022E-02 4815.00000 3.00000000 2 1
 A311         -2 125 30 1 0.00000000E+00 0.407000005 0.272000015 4763.79980 3.00000000 2 1
 A312         -2 126 31 1 0.00000000E+00 2.50000004E-02 0.416000009 4761.00000 3.00000000 2 1
 A313         -2 126 15 1 0.00000000E+00 0.316000015 -0.324999988 4807.66992 5.00000000 2 1
 A314         -2 127 33 1 0.00000000E+00 -4.80000004E-02 -0.439000010 4760.02002 3.00000000 2 1
 A316         -2 129 28 1 0.00000000E+00 1.99999996E-02 -0.197999999 4748.00000 3.00000000 2 1
 A317         -2 129 36 1 0.00000000E+00 0.483999997 0.225999996 4785.00000 4.00000000 2 1
 A318         -2 130 21 1 0.00000000E+00 9.49999988E-02 0.437999994 4758.00000 3.00000000 2 1
 A319         -2 130 34 1 0.00000000E+00 0.225999996 -0.192000002 4760.00000 3.00000000 2 1
 A320         -2 132 18 1 0.00000000E+00 0.189999998 -0.204999998 4775.18018 4.00000000 2 1
 A321         -2 133 24 1 0.00000000E+00 -0.493000001 0.414000005 4740.00000 4.00000000 2 1
 A322         -2 133 27 1 0.00000000E+00 -0.180999994 0.340999991 4750.00000 3.00000000 2 1
 A324         -2 135 27 1 0.00000000E+00 -0.173999995 8.50000009E-02 4736.25977 3.00000000 2 1
 A325         -2 136 20 1 0.00000000E+00 0.209000006 0.335000008 4751.54980 4.00000000 2 1
 A326         -2 136 20 1 0.00000000E+00 0.301999986 0.284000009 4751.02979 4.00000000 2 1
 A327         -2 137 36 1 0.00000000E+00 -0.165000007 5.00000007E-02 4772.04980 4.00000000 2 1
 A329         -2 138 12 1 0.00000000E+00 7.90000036E-02 0.307999998 5329.50000 10.0000000 2 1
 A330         -2 138 30 1 0.00000000E+00 7.10000023E-02 0.395000011 4735.00000 3.00000000 2 1
 A331         -2 140 36 1 0.00000000E+00 -0.261000007 0.128000006 4752.00000 3.00000000 2 1
 A332         -2 140 25 1 0.00000000E+00 -0.171000004 0.349999994 4727.00000 3.00000000 2 1
 A333         -2 144 26 1 0.00000000E+00 -6.30000010E-02 0.187000006 4714.14014 4.00000000 2 1
 A334         -2 147 21 1 0.00000000E+00 0.421999991 -0.272000015 4723.00000 3.00000000 2 1
 A335         -2 148 24 1 0.00000000E+00 0.259999990 0.270999998 4703.54980 3.00000000 2 1
 A336         -2 149 16 1 0.00000000E+00 -0.134000003 0.237000003 4784.58008 4.00000000 2 1
 A337         -2 149 24 1 0.00000000E+00 3.20000015E-02 0.398000002 4710.00000 3.00000000 2 1
 A339         -2 152 20 1 0.00000000E+00 -7.00000022E-03 0.414999992 4732.29980 3.00000000 2 1
 B003         7 52 27 1 0.00000000E+00 -0.284999996 -0.180000007 4835.00000 5.00000000 2 1
 B004         1 52 27 1 0.00000000E+00 -0.284999996 -0.180000007 4943.00000 5.00000000 2 1
 B001         -2 52 27 1 0.00000000E+00 -0.284999996 -0.180000007 4876.00000 5.00000000 2 1
 B002         -2 52 27 1 0.00000000E+00 -0.284999996 -0.180000007 4880.00000 5.00000000 2 1
 B005         -2 52 27 1 0.00000000E+00 -0.284999996 -0.180000007 4931.00000 5.00000000 2 1
 B006         -2 52 27 1 0.00000000E+00 -0.284999996 -0.180000007 4916.00000 5.00000000 2 1
 SNFEL        -2 30 64 -11 0.00000000E+00 1 0
 SNFEL75.41   17 150.740005 5143.89014 3.00000000 2 1
 SNFEL76.12   18 42.4300003 5142.10010 2.00000000 2 1
 SNFEL77.05   19 16.9899998 5144.29980 2.00000000 2 1
 SNFEL78.08   20 30.9899998 5142.72998 2.00000000 2 1
 SNFEL79.04   21 15.9899998 5143.43994 2.00000000 2 1
 SNFEL80.08   22 28.9899998 5143.12988 2.00000000 2 1
 SNFEL81.18   23 65.8600006 5142.95996 2.00000000 2 1
 SNFEL85.06   27 21.9899998 5144.56982 2.00000000 2 1
 SNFEL90.06   32 21.9899998 5144.45020 2.00000000 2 1
 SNFEL95.11   42 99.4300003 5144.25977 2.00000000 2 1
 SNFEL00.21   52 135.149994 5145.45020 2.00000000 2 1
 SNTA2        -2 37 51 -23 0.00000000E+00 1 0
 SNTA284.18   26 65.8600006 5045.00000 3.00000000 2 1
 SNTA285.16   27 57.4300003 5044.87012 2.00000000 2 1
 SNTA286.08   28 27.9899998 5044.52002 2.00000000 2 1
 SNTA287.05   29 19.9899998 5045.20996 2.00000000 2 1
 SNTA288.09   30 31.4300003 5044.56982 2.00000000 2 1
 SNTA289.15   31 53.4300003 5043.70996 2.00000000 2 1
 SNTA290.02   32 7.98999977 5043.43018 2.00000000 2 1
 SNTA290.26   33 22.0599995 5043.56982 2.00000000 2 1
 SNTA290.83   34 0.680000007 5043.22998 2.00000000 2 1
 SNTA291.26   35 20.0599995 5044.37988 2.00000000 2 1
 SNTA291.85   36 7.11000013 5043.24023 2.00000000 2 1
 SNTA292.24   37 13.6199999 5043.83008 2.00000000 2 1
 SNTA292.92   38 32.5499992 5042.93994 2.00000000 2 1
 SNTA295.30   43 35.0600014 5043.24023 2.00000000 2 1
 SNTA296.08   44 90.9899979 5043.72998 2.00000000 2 1
 SNTA296.36   45 56.4900017 5044.25000 2.00000000 2 1
 SNTA297.00   46 61.5499992 5044.27002 2.00000000 2 1
 SNTA297.24   47 13.6199999 5044.16016 2.00000000 2 1
 SNTA298.00   48 61.5499992 5045.37012 2.00000000 2 1
 SNTA298.25   49 17.6200008 5045.68994 2.00000000 2 1
 SNTA299.01   50 65.9899979 5045.60010 2.00000000 2 1
 SNTA299.25   51 18.0599995 5045.68018 2.00000000 2 1
 SNTA200.11   52 99.4300003 5045.52002 2.00000000 2 1
 TRRMR        -2 41 56 -28 0.00000000E+00 1 0
 TRRMR83.07   25 24.9899998 5054.39014 3.00000000 2 1
 TRRMR84.08   26 29.9899998 5045.45020 2.00000000 2 1
 TRRMR85.32   27 116.300003 5047.02979 2.00000000 2 1
 TRRMR86.08   28 27.9899998 5041.31006 2.00000000 2 1
 TRRMR87.05   29 19.9899998 5053.79980 2.00000000 2 1
 TRRMR88.09   30 31.4300003 5046.18994 2.00000000 2 1
 TRRMR89.08   31 30.9899998 5054.12988 2.00000000 2 1
 TRRMR90.02   32 7.98999977 5053.56006 2.00000000 2 1
 TRRMR90.26   33 22.0599995 5053.60986 2.00000000 2 1
 TRRMR90.83   34 0.680000007 5053.37012 2.00000000 2 1
 TRRMR91.26   35 20.0599995 5053.18018 2.00000000 2 1
 TRRMR92.02   36 68.9899979 5052.75977 2.00000000 2 1
 TRRMR92.24   37 13.6199999 5052.91992 2.00000000 2 1
 TRRMR92.92   38 32.5499992 5052.70996 2.00000000 2 1
 TRRMR93.27   39 24.0599995 5052.39014 2.00000000 2 1
 TRRMR93.84   40 2.10999990 5051.89990 2.00000000 2 1
 TRRMR94.21   41 3.61999989 5052.62012 2.00000000 2 1
 TRRMR94.90   42 23.1100006 5052.10986 2.00000000 2 1
 TRRMR95.30   43 35.0600014 5052.22998 2.00000000 2 1
 TRRMR96.08   44 90.9899979 5051.95996 2.00000000 2 1
 TRRMR96.36   45 56.4900017 5051.93018 2.00000000 2 1
 TRRMR97.00   46 61.5499992 5051.74023 2.00000000 2 1
 TRRMR97.24   47 13.6199999 5052.66016 2.00000000 2 1
 TRRMR97.96   48 46.5499992 5051.37988 2.00000000 2 1
 TRRMR98.52   49 117.360001 5050.37012 2.00000000 2 1
 TRRMR99.02   50 66.9899979 5051.41992 2.00000000 2 1
 TRRMR99.48   51 99.9300003 5049.81006 2.00000000 2 1
 TRRMR00.11   52 99.4300003 5049.93018 2.00000000 2 1
 SDECW2       2 46 53 -24 0.00000000E+00 1 0
 SDECW257.43  13 888.679993 5065.04004 3.00000000 2 1
 SDECW260.02  14 5.98999977 5064.45996 2.00000000 2 1
 SDECW265.15  15 56.4300003 5063.93018 2.00000000 2 1
 SDECW270.06  16 20.9899998 5061.49023 2.00000000 2 1
 SDECW275.06  17 22.9899998 5063.83008 2.00000000 2 1
 SDECW277.03  19 11.9899998 5063.77979 2.00000000 2 1
 SDECW278.08  20 30.9899998 5063.37988 2.00000000 2 1
 SDECW280.08  22 27.9899998 5060.70020 2.00000000 2 1
 SDECW281.10  23 35.4300003 5063.33984 2.00000000 2 1
 SDECW285.49  27 180.179993 5061.60010 2.00000000 2 1
 SDECW286.00  28 0.550000012 5062.29980 2.00000000 2 1
 SDECW289.72  31 261.489990 5062.22998 2.00000000 2 1
 SDECW290.03  32 11.9899998 5062.50000 2.00000000 2 1
 SDECW290.26  33 22.0599995 5062.70996 2.00000000 2 1
 SDECW290.83  34 0.680000007 5062.54980 2.00000000 2 1
 SDECW291.26  35 20.0599995 5062.31982 2.00000000 2 1
 SDECW292.03  36 70.9899979 5061.77002 2.00000000 2 1
 SDECW292.24  37 13.6199999 5062.10986 2.00000000 2 1
 SDECW292.92  38 32.5499992 5061.79980 2.00000000 2 1
 SDECW293.27  39 24.0599995 5061.56982 2.00000000 2 1
 SDECW293.84  40 2.10999990 5061.12012 2.00000000 2 1
 SDECW294.35  41 52.4900017 5061.14990 2.00000000 2 1
 SDECW295.11  42 101.430000 5060.62012 2.00000000 2 1
 SDECW200.07  52 87.9899979 5059.20020 2.00000000 2 1
 SDECW1       2 50 53 -11 0.00000000E+00 1 0
 SDECW157.07  13 755.489990 4995.02002 3.00000000 2 1
 SDECW160.02  14 5.98999977 4994.62012 2.00000000 2 1
 SDECW165.15  15 56.4300003 4980.52002 2.00000000 2 1
 SDECW170.06  16 20.9899998 4990.00000 2.00000000 2 1
 SDECW175.06  17 22.9899998 4985.97998 2.00000000 2 1
 SDECW177.03  19 11.9899998 4985.58008 2.00000000 2 1
 SDECW180.08  22 27.9899998 4970.50000 2.00000000 2 1
 SDECW181.17  23 61.8600006 4967.20020 2.00000000 2 1
 SDECW185.07  27 23.9899998 4966.20996 2.00000000 2 1
 SDECW186.00  28 0.550000012 4964.02979 2.00000000 2 1
 SDECW187.12  29 43.4300003 4965.41016 2.00000000 2 1
 WM2          5 55 30 -19 0.00000000E+00 1 0
 WM282.07     24 24.9899998 4946.60010 3.00000000 2 1
 WM283.08     25 27.9899998 4947.00000 2.00000000 2 1
 WM284.03     26 11.9899998 4945.29980 2.00000000 2 1
 WM285.12     27 42.4300003 4945.35010 2.00000000 2 1
 WM286.02     28 6.98999977 4935.79980 2.00000000 2 1
 WM287.12     29 43.4300003 4942.79004 2.00000000 2 1
 WM288.09     30 31.4300003 4941.31982 2.00000000 2 1
 WM289.27     31 97.3000031 4942.50000 2.00000000 2 1
 WM290.03     32 11.9899998 4941.16992 2.00000000 2 1
 WM290.26     33 21.0599995 4942.50977 2.00000000 2 1
 WM291.01     34 64.9899979 4941.27002 2.00000000 2 1
 WM291.26     35 22.0599995 4941.83984 2.00000000 2 1
 WM292.07     36 84.9899979 4940.27002 2.00000000 2 1
 WM292.23     37 10.6199999 4941.99023 2.00000000 2 1
 WM293.03     38 71.9899979 4937.77002 2.00000000 2 1
 WM293.27     39 23.0599995 4939.79004 2.00000000 2 1
 WM294.00     40 59.5499992 4935.14014 2.00000000 2 1
 WM294.28     41 29.0599995 4935.18018 2.00000000 2 1
 WM296.37     45 60.4900017 4934.95020 2.00000000 2 1
 COR1         -2 56 49 -14 0.00000000E+00 1 0
 COR174.54    16 1656.60999 4955.00000 3.00000000 2 1
 COR182.63    24 231.050003 4936.81006 2.00000000 2 1
 COR183.18    25 64.8600006 4941.25000 2.00000000 2 1
 COR184.14    26 52.4300003 4937.47021 2.00000000 2 1
 COR185.06    27 21.9899998 4936.45996 2.00000000 2 1
 COR186.00    28 0.550000012 4931.31006 2.00000000 2 1
 COR187.08    29 27.9899998 4929.68994 2.00000000 2 1
 COR188.40    30 145.740005 4926.00000 2.00000000 2 1
 COR189.09    31 31.4300003 4921.00000 2.00000000 2 1
 COR190.26    33 21.0599995 4915.00000 2.00000000 2 1
 COR191.68    35 173.240005 4902.00000 2.00000000 2 1
 COR192.08    36 91.9899979 4911.00000 2.00000000 2 1
 COR193.18    38 127.870003 4911.00000 2.00000000 2 1
 COR196.97    46 48.5499992 4906.83008 2.00000000 2 1
 VC1          -2 57 35 -15 0.00000000E+00 1 0
 VC168.73     15 1363.23999 4964.00000 3.00000000 2 1
 VC178.11     20 38.4300003 4948.00000 2.00000000 2 1
 VC186.07     28 25.9899998 4921.00000 2.00000000 2 1
 VC187.80     29 290.920013 4926.00000 2.00000000 2 1
 VC188.11     30 38.4300003 4914.00000 2.00000000 2 1
 VC189.43     31 158.179993 4895.00000 2.00000000 2 1
 VC190.23     33 10.6199999 4889.00000 2.00000000 2 1
 VC191.27     35 25.0599995 4877.00000 2.00000000 2 1
 VC191.85     36 7.11000013 4874.00000 2.00000000 2 1
 VC192.51     37 111.360001 4860.00000 2.00000000 2 1
 VC193.06     38 82.9899979 4878.00000 2.00000000 2 1
 VC196.93     46 34.5499992 4884.14014 2.00000000 2 1
 VC198.03     48 72.9899979 4868.68994 2.00000000 2 1
 VC199.03     50 71.9899979 4877.39014 2.00000000 2 1
 VC100.10     52 98.4300003 4880.70996 2.00000000 2 1
 CTY3         -2 59 41 -40 0.00000000E+00 1 0
 CTY357.36    13 861.239990 4962.04980 3.00000000 2 1
 CTY360.01    14 4.98999977 4961.33984 2.00000000 2 1
 CTY365.12    15 42.4300003 4959.45996 2.00000000 2 1
 CTY370.05    16 18.9899998 4956.31982 2.00000000 2 1
 CTY375.06    17 21.9899998 4956.95996 2.00000000 2 1
 CTY376.13    18 47.4300003 4958.70020 2.00000000 2 1
 CTY377.03    19 11.9899998 4958.95020 2.00000000 2 1
 CTY378.08    20 30.9899998 4954.10010 2.00000000 2 1
 CTY379.05    21 16.9899998 4957.41016 2.00000000 2 1
 CTY380.08    22 27.9899998 4957.87012 2.00000000 2 1
 CTY381.20    23 71.8600006 4955.10986 2.00000000 2 1
 CTY382.56    24 205.610001 4949.06982 2.00000000 2 1
 CTY383.05    25 18.9899998 4952.43994 2.00000000 2 1
 CTY384.07    26 26.9899998 4952.27979 2.00000000 2 1
 CTY385.06    27 21.9899998 4950.12988 2.00000000 2 1
 CTY386.08    28 29.9899998 4952.22021 2.00000000 2 1
 CTY387.05    29 19.9899998 4952.95020 2.00000000 2 1
 CTY388.07    30 26.9899998 4951.72021 2.00000000 2 1
 CTY389.15    31 53.4300003 4950.33984 2.00000000 2 1
 CTY390.02    32 7.98999977 4952.20020 2.00000000 2 1
 CTY390.26    33 21.0599995 4952.22998 2.00000000 2 1
 CTY390.84    34 1.11000001 4950.31982 2.00000000 2 1
 CTY391.26    35 21.0599995 4946.41016 2.00000000 2 1
 CTY391.85    36 7.11000013 4947.75000 2.00000000 2 1
 CTY392.22    37 5.61999989 4950.70996 2.00000000 2 1
 CTY392.95    38 44.5499992 4949.70020 2.00000000 2 1
 CTY393.27    39 24.0599995 4946.27002 2.00000000 2 1
 CTY393.84    40 4.11000013 4950.29980 2.00000000 2 1
 CTY394.21    41 3.61999989 4947.56982 2.00000000 2 1
 CTY394.97    42 51.5499992 4950.37012 2.00000000 2 1
 CTY395.21    43 1.62000000 4949.66992 2.00000000 2 1
 CTY395.84    44 1.11000001 4946.60010 2.00000000 2 1
 CTY396.36    45 55.4900017 4942.99023 2.00000000 2 1
 CTY397.00    46 61.5499992 4947.00977 2.00000000 2 1
 CTY397.24    47 12.6199999 4945.12012 2.00000000 2 1
 CTY398.00    48 59.5499992 4946.39014 2.00000000 2 1
 CTY398.25    49 17.6200008 4946.70020 2.00000000 2 1
 CTY399.02    50 67.9899979 4944.56982 2.00000000 2 1
 CTY399.25    51 18.0599995 4944.16016 2.00000000 2 1
 CTY300.09    52 95.4300003 4947.27979 2.00000000 2 1
 CTY2         3 60 44 -39 0.00000000E+00 1 0
 CTY257.59    13 944.549988 4968.97021 3.00000000 2 1
 CTY260.01    14 4.98999977 4966.97998 2.00000000 2 1
 CTY265.12    15 42.4300003 4961.83008 2.00000000 2 1
 CTY270.05    16 18.9899998 4957.43018 2.00000000 2 1
 CTY275.06    17 21.9899998 4952.70020 2.00000000 2 1
 CTY276.13    18 47.4300003 4952.20020 2.00000000 2 1
 CTY277.03    19 11.9899998 4951.22021 2.00000000 2 1
 CTY278.08    20 30.9899998 4949.18018 2.00000000 2 1
 CTY279.05    21 16.9899998 4947.33008 2.00000000 2 1
 CTY280.08    22 27.9899998 4945.66016 2.00000000 2 1
 CTY281.20    23 71.8600006 4944.10986 2.00000000 2 1
 CTY282.81    24 295.920013 4940.81982 2.00000000 2 1
 CTY283.05    25 18.9899998 4941.41992 2.00000000 2 1
 CTY284.07    26 26.9899998 4940.35010 2.00000000 2 1
 CTY285.06    27 21.9899998 4939.50000 2.00000000 2 1
 CTY286.08    28 29.9899998 4937.83984 2.00000000 2 1
 CTY287.08    29 27.9899998 4937.22021 2.00000000 2 1
 CTY288.07    30 26.9899998 4935.79980 2.00000000 2 1
 CTY289.15    31 53.4300003 4934.37012 2.00000000 2 1
 CTY290.01    32 4.98999977 4932.10986 2.00000000 2 1
 CTY290.26    33 19.0599995 4931.62988 2.00000000 2 1
 CTY290.84    34 1.11000001 4930.43994 2.00000000 2 1
 CTY291.92    36 32.5499992 4928.79980 2.00000000 2 1
 CTY292.22    37 5.61999989 4928.41992 2.00000000 2 1
 CTY292.95    38 44.5499992 4927.77979 2.00000000 2 1
 CTY293.27    39 24.0599995 4927.08984 2.00000000 2 1
 CTY293.84    40 1.11000001 4926.08008 2.00000000 2 1
 CTY294.21    41 3.61999989 4925.95020 2.00000000 2 1
 CTY294.91    42 28.1100006 4924.62012 2.00000000 2 1
 CTY295.30    43 35.0600014 4924.06982 2.00000000 2 1
 CTY295.84    44 1.11000001 4922.79980 2.00000000 2 1
 CTY296.36    45 55.4900017 4921.56006 2.00000000 2 1
 CTY297.00    46 61.5499992 4922.06006 2.00000000 2 1
 CTY297.24    47 12.6199999 4921.33008 2.00000000 2 1
 CTY298.00    48 59.5499992 4920.77979 2.00000000 2 1
 CTY298.25    49 17.6200008 4921.41016 2.00000000 2 1
 CTY299.02    50 67.9899979 4920.20996 2.00000000 2 1
 CTY299.25    51 18.0599995 4920.29980 2.00000000 2 1
 CTY200.09    52 95.4300003 4919.43018 2.00000000 2 1
 THOM2        -2 61 52 -4 0.00000000E+00 1 0
 THOM258.82   13 1393.67004 4975.00000 3.00000000 2 1
 THOM285.17   27 61.8600006 4898.43994 2.00000000 2 1
 THOM286.01   28 2.99000001 4890.66016 2.00000000 2 1
 THOM287.08   29 29.9899998 4889.20996 2.00000000 2 1
 CTY1         3 65 43 -39 0.00000000E+00 1 0
 CTY157.59    13 944.549988 4930.60010 3.00000000 2 1
 CTY160.01    14 4.98999977 4938.97998 2.00000000 2 1
 CTY165.12    15 42.4300003 4940.35986 2.00000000 2 1
 CTY170.05    16 18.9899998 4936.89014 2.00000000 2 1
 CTY175.06    17 21.9899998 4931.75977 2.00000000 2 1
 CTY176.13    18 47.4300003 4927.75977 2.00000000 2 1
 CTY177.03    19 11.9899998 4929.81006 2.00000000 2 1
 CTY178.08    20 29.9899998 4930.95996 2.00000000 2 1
 CTY179.05    21 16.9899998 4928.45020 2.00000000 2 1
 CTY180.08    22 27.9899998 4926.33984 2.00000000 2 1
 CTY181.20    23 71.8600006 4925.50977 2.00000000 2 1
 CTY182.54    24 197.610001 4922.14990 2.00000000 2 1
 CTY183.05    25 18.9899998 4923.54004 2.00000000 2 1
 CTY184.07    26 26.9899998 4922.37988 2.00000000 2 1
 CTY185.06    27 21.9899998 4922.37988 2.00000000 2 1
 CTY186.08    28 29.9899998 4921.22021 2.00000000 2 1
 CTY187.08    29 27.9899998 4920.66992 2.00000000 2 1
 CTY188.07    30 26.9899998 4919.31982 2.00000000 2 1
 CTY189.15    31 53.4300003 4918.31982 2.00000000 2 1
 CTY190.01    32 4.98999977 4916.20020 2.00000000 2 1
 CTY190.26    33 19.0599995 4916.83984 2.00000000 2 1
 CTY190.84    34 1.11000001 4913.68018 2.00000000 2 1
 CTY191.26    35 21.0599995 4914.79980 2.00000000 2 1
 CTY191.92    36 32.5499992 4913.20996 2.00000000 2 1
 CTY192.22    37 5.61999989 4914.27979 2.00000000 2 1
 CTY192.90    38 25.1100006 4912.60986 2.00000000 2 1
 CTY193.26    39 19.0599995 4914.56982 2.00000000 2 1
 CTY193.84    40 4.11000013 4910.66992 2.00000000 2 1
 CTY194.22    41 4.61999989 4912.14990 2.00000000 2 1
 CTY195.00    42 59.5499992 4909.62012 2.00000000 2 1
 CTY196.07    44 84.9899979 4908.83008 2.00000000 2 1
 CTY196.36    45 55.4900017 4908.41016 2.00000000 2 1
 CTY197.00    46 60.5499992 4906.79004 2.00000000 2 1
 CTY197.24    47 12.6199999 4908.58984 2.00000000 2 1
 CTY198.00    48 59.5499992 4905.97021 2.00000000 2 1
 CTY198.25    49 17.6200008 4909.12012 2.00000000 2 1
 CTY199.02    50 67.9899979 4906.22998 2.00000000 2 1
 CTY199.26    51 19.0599995 4907.02979 2.00000000 2 1
 CTY100.09    52 95.4300003 4907.06006 2.00000000 2 1
 WM1A         -2 66 26 -17 0.00000000E+00 1 0
 WM1A83.07    25 26.9899998 4913.00000 3.00000000 2 1
 WM1A84.07    26 26.9899998 4913.00000 2.00000000 2 1
 WM1A85.11    27 41.4300003 4913.14990 2.00000000 2 1
 WM1A86.02    28 7.98999977 4904.81006 2.00000000 2 1
 WM1A87.18    29 66.8600006 4912.18994 2.00000000 2 1
 WM1A88.09    30 31.4300003 4912.29980 2.00000000 2 1
 WM1A89.33    31 119.300003 4911.52979 2.00000000 2 1
 WM1A90.01    32 3.99000001 4910.22021 2.00000000 2 1
 WM1A90.26    33 21.0599995 4910.75977 2.00000000 2 1
 WM1A91.26    35 22.0599995 4910.14014 2.00000000 2 1
 WM1A92.02    36 66.9899979 4910.25977 2.00000000 2 1
 WM1A92.22    37 5.61999989 4910.02002 2.00000000 2 1
 WM1A93.08    38 88.9899979 4909.79004 2.00000000 2 1
 WM1A93.27    39 23.0599995 4910.04980 2.00000000 2 1
 WM1A94.00    40 59.5499992 4909.10986 2.00000000 2 1
 WM1A94.28    41 29.0599995 4909.20020 2.00000000 2 1
 WM1A96.36    45 55.4900017 4908.35010 2.00000000 2 1
 LOM1         -2 67 55 -13 0.00000000E+00 1 0
 LOM162.71    14 988.989990 4948.00000 3.00000000 2 1
 LOM182.79    24 287.920013 4890.70020 2.00000000 2 1
 LOM184.78    26 283.920013 4869.00000 2.00000000 2 1
 LOM185.37    27 135.740005 4871.00000 2.00000000 2 1
 LOM186.01    28 1.99000001 4881.00000 2.00000000 2 1
 LOM188.38    30 139.740005 4858.00000 2.00000000 2 1
 LOM189.32    31 116.300003 4853.00000 2.00000000 2 1
 LOM190.22    33 7.61999989 4860.00000 2.00000000 2 1
 LOM190.37    33 62.4900017 4853.00000 2.00000000 2 1
 LOM191.75    35 200.679993 4851.00000 2.00000000 2 1
 LOM192.12    36 103.430000 4870.00000 2.00000000 2 1
 LOM192.13    36 109.430000 4869.00000 2.00000000 2 1
 LOM193.15    38 114.430000 4864.00000 2.00000000 2 1
 SND2         -2 71 48 -10 0.00000000E+00 1 0
 SND249.83    11 1765.35999 4953.00000 3.00000000 2 1
 SND256.74    13 633.739990 4950.00000 2.00000000 2 1
 SND263.43    14 1253.93005 4939.00000 2.00000000 2 1
 SND275.33    17 121.739998 4915.00000 2.00000000 2 1
 SND280.08    22 30.4300003 4903.00000 2.00000000 2 1
 SND282.01    24 3.99000001 4899.00000 2.00000000 2 1
 SND283.03    25 10.9899998 4896.00000 2.00000000 2 1
 SND284.01    26 2.99000001 4894.00000 2.00000000 2 1
 SND285.01    27 1.99000001 4894.00000 2.00000000 2 1
 SND288.00    30 0.990000010 4894.00000 2.00000000 2 1
 ISECW3       -2 84 47 -25 0.00000000E+00 1 0
 ISECW356.12  13 410.679993 4936.02002 3.00000000 2 1
 ISECW360.01  14 4.98999977 4934.97998 2.00000000 2 1
 ISECW365.12  15 42.4300003 4932.83008 2.00000000 2 1
 ISECW370.05  16 18.9899998 4930.37988 2.00000000 2 1
 ISECW375.07  17 23.9899998 4926.75977 2.00000000 2 1
 ISECW377.03  19 10.9899998 4924.72998 2.00000000 2 1
 ISECW378.08  20 29.9899998 4920.99023 2.00000000 2 1
 ISECW380.08  22 29.9899998 4922.06006 2.00000000 2 1
 ISECW381.20  23 72.8600006 4920.41016 2.00000000 2 1
 ISECW383.35  25 127.739998 4917.25000 2.00000000 2 1
 ISECW384.08  26 30.9899998 4902.37012 2.00000000 2 1
 ISECW385.07  27 23.9899998 4908.75000 2.00000000 2 1
 ISECW386.08  28 28.9899998 4910.83984 2.00000000 2 1
 ISECW389.55  31 201.610001 4902.25000 2.00000000 2 1
 ISECW390.06  32 21.9899998 4906.00977 2.00000000 2 1
 ISECW390.26  33 19.0599995 4908.31982 2.00000000 2 1
 ISECW390.93  34 34.5499992 4907.33008 2.00000000 2 1
 ISECW391.26  35 21.0599995 4906.81006 2.00000000 2 1
 ISECW391.92  36 32.5499992 4906.29004 2.00000000 2 1
 ISECW392.24  37 12.6199999 4905.70996 2.00000000 2 1
 ISECW393.11  38 100.430000 4904.00000 2.00000000 2 1
 ISECW393.34  39 50.4900017 4902.62012 2.00000000 2 1
 ISECW393.94  40 39.5499992 4902.41016 2.00000000 2 1
 ISECW394.22  41 4.61999989 4903.10010 2.00000000 2 1
 ISECW395.10  42 97.4300003 4902.64990 2.00000000 2 1
 GRSLND       3 94 32 -21 0.00000000E+00 1 0
 GRSLND58.45  13 1259.93005 4853.00000 3.00000000 2 1
 GRSLND82.96  24 350.799988 4852.85986 2.00000000 2 1
 GRSLND83.07  25 26.9899998 4853.37988 2.00000000 2 1
 GRSLND84.24  26 87.8600006 4851.00000 2.00000000 2 1
 GRSLND85.07  27 23.9899998 4834.54980 2.00000000 2 1
 GRSLND86.08  28 28.9899998 4851.14990 2.00000000 2 1
 GRSLND87.06  29 20.9899998 4835.50977 2.00000000 2 1
 GRSLND88.07  30 26.9899998 4851.06006 2.00000000 2 1
 GRSLND89.07  31 26.9899998 4851.58984 2.00000000 2 1
 GRSLND90.07  32 24.9899998 4850.81982 2.00000000 2 1
 GRSLND91.01  34 63.9900017 4850.70020 2.00000000 2 1
 GRSLND92.02  36 69.9899979 4850.93994 2.00000000 2 1
 GRSLND93.04  38 75.9899979 4850.68994 2.00000000 2 1
 GRSLND94.00  40 60.5499992 4849.49023 2.00000000 2 1
 GRSLND95.05  42 80.9899979 4849.62012 2.00000000 2 1
 GRSLND96.07  44 85.9899979 4847.89990 2.00000000 2 1
 GRSLND97.33  47 46.0600014 4840.62012 2.00000000 2 1
 GRSLND98.12  48 103.430000 4847.39990 2.00000000 2 1
 GRSLND98.58  49 137.360001 4844.14990 2.00000000 2 1
 GRSLND99.15  50 114.430000 4847.18018 2.00000000 2 1
 GRSLND00.11  52 101.430000 4847.22021 2.00000000 2 1
 BLNAP        -2 115 26 -26 0.00000000E+00 1 0
 BLNAP83.22   25 78.8600006 4804.00000 3.00000000 2 1
 BLNAP84.25   26 90.8600006 4804.33008 2.00000000 2 1
 BLNAP85.16   27 58.4300003 4815.60986 2.00000000 2 1
 BLNAP86.59   28 214.050003 4802.97021 2.00000000 2 1
 BLNAP87.06   29 20.9899998 4800.12012 2.00000000 2 1
 BLNAP88.57   30 208.610001 4802.62012 2.00000000 2 1
 BLNAP89.08   31 29.9899998 4803.20020 2.00000000 2 1
 BLNAP90.11   32 39.4300003 4803.41016 2.00000000 2 1
 BLNAP90.52   33 114.360001 4802.97021 2.00000000 2 1
 BLNAP90.92   34 33.5499992 4802.54980 2.00000000 2 1
 BLNAP91.51   35 110.360001 4796.70020 2.00000000 2 1
 BLNAP92.02   36 69.9899979 4803.10010 2.00000000 2 1
 BLNAP92.54   37 122.360001 4803.00977 2.00000000 2 1
 BLNAP93.03   38 72.9899979 4803.20020 2.00000000 2 1
 BLNAP93.50   39 107.930000 4802.97998 2.00000000 2 1
 BLNAP94.00   40 60.5499992 4803.08984 2.00000000 2 1
 BLNAP94.50   41 107.930000 4802.87988 2.00000000 2 1
 BLNAP95.05   42 80.9899979 4803.27979 2.00000000 2 1
 BLNAP95.50   43 106.930000 4802.60010 2.00000000 2 1
 BLNAP95.83   44 0.680000007 4803.16016 2.00000000 2 1
 BLNAP96.73   45 193.240005 4803.04004 2.00000000 2 1
 BLNAP97.33   47 46.0600014 4803.24023 2.00000000 2 1
 BLNAP98.12   48 103.430000 4803.62012 2.00000000 2 1
 BLNAP98.58   49 137.360001 4803.41992 2.00000000 2 1
 BLNAP99.55   51 128.360001 4803.22021 2.00000000 2 1
 BLNAP00.11   52 101.430000 4803.60010 2.00000000 2 1
 MCLAU        -2 123 43 -20 0.00000000E+00 1 0
 MCLAU83.07   25 26.9899998 4799.33008 3.00000000 2 1
 MCLAU84.08   26 30.9899998 4794.47998 2.00000000 2 1
 MCLAU85.16   27 58.4300003 4799.12988 2.00000000 2 1
 MCLAU86.08   28 28.9899998 4799.06006 2.00000000 2 1
 MCLAU87.06   29 20.9899998 4799.08008 2.00000000 2 1
 MCLAU88.57   30 208.610001 4798.27002 2.00000000 2 1
 MCLAU89.08   31 29.9899998 4799.02979 2.00000000 2 1
 MCLAU90.11   32 39.4300003 4798.99023 2.00000000 2 1
 MCLAU90.68   33 175.240005 4799.00000 2.00000000 2 1
 MCLAU91.01   34 63.9900017 4799.02979 2.00000000 2 1
 MCLAU91.51   35 110.360001 4798.91992 2.00000000 2 1
 MCLAU92.02   36 69.9899979 4798.93994 2.00000000 2 1
 MCLAU92.54   37 122.360001 4798.89990 2.00000000 2 1
 MCLAU93.03   38 72.9899979 4798.87988 2.00000000 2 1
 MCLAU93.50   39 107.930000 4798.81982 2.00000000 2 1
 MCLAU94.00   40 60.5499992 4798.97998 2.00000000 2 1
 MCLAU95.05   42 80.9899979 4799.00000 2.00000000 2 1
 MCLAU95.50   43 106.930000 4798.87988 2.00000000 2 1
 MCLAU96.07   44 85.9899979 4799.14990 2.00000000 2 1
 MCLAU96.73   45 193.240005 4798.89990 2.00000000 2 1
 SEVI         -2 147 21 -28 0.00000000E+00 1 0
 SEVI75.52    17 190.610001 4723.00000 3.00000000 2 1
 SEVI82.96    24 350.799988 4722.79980 2.00000000 2 1
 SEVI83.07    25 26.9899998 4723.20996 2.00000000 2 1
 SEVI84.08    26 30.9899998 4723.45020 2.00000000 2 1
 SEVI85.16    27 58.4300003 4723.12012 2.00000000 2 1
 SEVI86.08    28 28.9899998 4723.27002 2.00000000 2 1
 SEVI87.06    29 20.9899998 4723.14990 2.00000000 2 1
 SEVI88.57    30 208.610001 4720.22021 2.00000000 2 1
 SEVI89.08    31 29.9899998 4722.91992 2.00000000 2 1
 SEVI90.11    32 39.4300003 4722.83008 2.00000000 2 1
 SEVI90.52    33 114.360001 4722.81006 2.00000000 2 1
 SEVI91.01    34 63.9900017 4722.79980 2.00000000 2 1
 SEVI91.51    35 110.360001 4720.64014 2.00000000 2 1
 SEVI92.02    36 69.9899979 4723.08008 2.00000000 2 1
 SEVI92.54    37 122.360001 4723.20996 2.00000000 2 1
 SEVI93.03    38 72.9899979 4723.29980 2.00000000 2 1
 SEVI93.50    39 107.930000 4723.39990 2.00000000 2 1
 SEVI94.00    40 60.5499992 4723.10010 2.00000000 2 1
 SEVI94.50    41 107.930000 4723.29004 2.00000000 2 1
 SEVI95.05    42 80.9899979 4723.29004 2.00000000 2 1
 SEVI95.50    43 106.930000 4723.16992 2.00000000 2 1
 SEVI96.07    44 85.9899979 4723.52002 2.00000000 2 1
 SEVI96.73    45 193.240005 4722.83984 2.00000000 2 1
 SEVI97.33    47 46.0600014 4723.16992 2.00000000 2 1
 SEVI98.12    48 103.430000 4723.31006 2.00000000 2 1
 SEVI98.58    49 137.360001 4722.66016 2.00000000 2 1
 SEVI99.55    51 128.360001 4722.52979 2.00000000 2 1
 SEVI00.11    52 101.430000 4722.47998 2.00000000 2 1
 C_4T_94.09   2 8 63 40 92.4300003 -8.29999968E-02 0.419999987 5230.60010 3.00000000 2 1
 C_170_94.09  2 8 75 40 92.4300003 0.245000005 0.351999998 5350.89990 3.00000000 2 1
 JEM_1T_94.09 2 9 37 40 92.4300003 0.442999989 -8.39999989E-02 5555.00000 3.00000000 2 1
 Zia_14T_94.0 2 12 34 40 92.4300003 3.40000018E-02 -0.128999993 5483.10010 3.00000000 2 1
 Zia_12T_94.0 2 13 38 40 92.4300003 0.105999999 -0.323000014 5399.39990 3.00000000 2 1
 SD_4B_94.09  2 13 62 40 92.4300003 -6.59999996E-02 1.70000009E-02 5089.00000 3.00000000 2 1
 SD_8T_94.09  2 13 55 40 92.4300003 0.379000008 0.137999997 5144.29980 3.00000000 2 1
 C_180_94.09  2 13 76 40 92.4300003 0.330000013 -0.476999998 5362.79980 3.00000000 2 1
 Zia_13T_94.0 2 14 42 40 92.4300003 0.163000003 0.268000007 5348.70020 3.00000000 2 1
 Zia_5T_94.09 2 15 49 40 92.4300003 0.123999998 -0.319000006 5242.00000 3.00000000 2 1
 Zia_11T_94.0 2 16 35 40 92.4300003 -0.240999997 -0.155000001 5406.10010 3.00000000 2 1
 Zia_3T_94.09 2 16 39 40 92.4300003 -0.143999994 0.213000000 5384.60010 3.00000000 2 1
 SD_1B_94.09  2 16 60 40 92.4300003 4.39999998E-02 -0.384000003 5124.29980 3.00000000 2 1
 SD_6B_94.09  2 16 74 40 92.4300003 0.243000001 -0.222000003 5349.10010 3.00000000 2 1
 SD_10T_94.09 2 17 79 40 92.4300003 -0.407000005 -5.09999990E-02 5382.79980 3.00000000 2 1
 Zia_15T_94.0 2 19 36 40 92.4300003 4.69999984E-02 -3.59999985E-02 5353.20020 3.00000000 2 1
 SD_2B_94.09  2 21 71 40 92.4300003 0.177000001 0.185000002 5212.10010 3.00000000 2 1
 SD_3B_94.09  2 23 77 40 92.4300003 -0.200000003 -8.10000002E-02 5339.70020 3.00000000 2 1
 Zia_4B_94.09 2 23 33 40 92.4300003 0.180000007 -0.423999995 5400.10010 5.00000000 2 1
 Zia_8T_94.09 2 23 38 40 92.4300003 0.282999992 0.172999993 5305.00000 3.00000000 2 1
 SA_6T_94.09  2 24 46 40 92.4300003 -0.492000014 4.10000011E-02 5171.70020 3.00000000 2 1
 SD_11_94.09  2 24 72 40 92.4300003 -0.261999995 0.347999990 5236.60010 3.00000000 2 1
 SA_11B_94.09 2 24 48 40 92.4300003 2.70000007E-02 0.340000004 5171.00000 3.00000000 2 1
 SDI25_94.09  2 25 69 40 92.4300003 0.479999989 -0.173999995 5143.70020 3.00000000 2 1
 SA_1B_94.09  2 27 41 40 92.4300003 -0.241999999 -0.143000007 5267.39990 3.00000000 2 1
 Zia_2T_94.09 2 28 38 40 92.4300003 -0.147000000 0.289000005 5225.00000 3.00000000 2 1
 Zia_10T_94.0 2 28 32 40 92.4300003 0.268999994 -0.368000001 5103.10010 3.00000000 2 1
 SA_12T_94.09 2 29 41 40 92.4300003 0.465999991 0.428999990 5246.39990 3.00000000 2 1
 SA_13T_94.09 2 30 53 40 92.4300003 -0.349999994 -0.194999993 5086.39990 3.00000000 2 1
 SA_2T_94.09  2 32 46 40 92.4300003 0.108000003 9.70000029E-02 5162.79980 3.00000000 2 1
 SA_907T_94.0 2 36 50 40 92.4300003 -0.250999987 -0.152999997 5069.10010 3.00000000 2 1
 E1_95.11     3 29 56 42 100.430000 0.379999995 7.80000016E-02 5081.41992 3.00000000 2 1
 E2_95.11     1 30 64 42 99.4300003 0.223000005 -0.367000014 5220.25977 3.00000000 2 1
 E3_95.11     3 36 57 42 99.4300003 -0.230000004 0.379000008 5106.33984 3.00000000 2 1
 E4_95.05     1 37 34 42 77.9919968 0.317000002 -0.351000011 5152.16992 3.00000000 2 1
 E5_95.30     3 37 51 43 35.0550003 0.298999995 5.90000004E-02 5043.24023 3.00000000 2 1
 E6_95.30     3 37 51 43 35.0550003 0.391000003 5.99999987E-02 5042.95996 3.00000000 2 1
 E7_95.11     1 38 49 42 100.430000 0.199000001 -8.10000002E-02 5057.50000 3.00000000 2 1
 E9_95.30     3 40 48 43 35.0550003 0.391999990 0.469999999 5011.39990 3.00000000 2 1
 E10_95.30    4 41 56 43 35.0550003 -0.345999986 0.131999999 5052.22998 3.00000000 2 1
 E11_95.11    2 46 53 42 101.430000 -0.180000007 -0.233999997 5060.62012 3.00000000 2 1
 E12_94.99    1 50 45 42 57.5509987 -0.181999996 2.89999992E-02 4996.25000 3.00000000 2 1
 E13_95.18    -3 51 42 42 127.866997 -0.405999988 -0.351000011 4948.93018 3.00000000 2 1
 E14_94.99    1 51 46 42 57.5509987 -7.10000023E-02 -9.99999978E-03 4999.16992 3.00000000 2 1
 E15_95.30    2 51 47 43 35.0550003 0.143999994 -0.101999998 4987.41016 3.00000000 2 1
 E16_95.12    4 52 36 42 105.430000 0.388999999 0.476999998 4933.35010 3.00000000 2 1
 E17_94.99    2 54 46 42 57.5509987 0.202999994 -0.460000008 4978.45996 3.00000000 2 1
 E18_94.99    2 55 45 42 57.5509987 -0.301999986 0.312999994 4974.22998 3.00000000 2 1
 E19_95.30    3 55 50 43 37.0550003 -0.279000014 0.337000012 4912.60986 3.00000000 2 1
 E20_95.30    -2 55 49 43 37.0550003 0.00000000E+00 0.479000002 4931.62012 3.00000000 2 1
 E21_94.99    1 55 43 42 57.5509987 7.19999969E-02 -0.386999995 4977.87988 3.00000000 2 1
 E22_95.30    -2 55 41 43 36.0550003 0.259000003 -0.180000007 4964.74023 3.00000000 2 1
 E23_95.49    6 55 41 43 105.926003 0.259000003 -0.180000007 4954.39990 3.00000000 2 1
 E24_95.30    5 55 41 43 36.0550003 0.259000003 -0.180000007 4957.97998 3.00000000 2 1
 E25_95.30    3 56 40 43 36.0550003 0.247999996 -0.365000010 4961.74023 3.00000000 2 1
 E26_95.30    3 57 49 43 36.0550003 -0.453999996 -0.451999992 4930.77002 3.00000000 2 1
 E27_95.30    3 59 41 43 34.0550003 0.428000003 0.202999994 4947.77979 3.00000000 2 1
 E28_95.30    3 60 38 43 36.0550003 -0.352999985 -0.485000014 4958.54004 3.00000000 2 1
 E29_95.30    3 60 44 43 35.0550003 -0.203999996 -0.144999996 4924.06982 3.00000000 2 1
 E30_94.99    1 61 40 42 58.5509987 -0.397000015 -0.159999996 4951.72021 3.00000000 2 1
 E31_95.03    2 61 44 42 72.9919968 0.156000003 -0.421000004 4917.20020 3.00000000 2 1
 E32_94.99    2 63 40 42 58.5509987 -0.389999986 0.497999996 4932.64990 3.00000000 2 1
 E33_95.30    3 63 40 43 34.0550003 -0.172999993 -0.259999990 4927.22998 3.00000000 2 1
 E34_94.99    2 63 39 42 58.5509987 4.39999998E-02 0.134000003 4953.60010 3.00000000 2 1
 E35_94.99    2 64 42 42 58.5509987 -0.432999998 -0.414000005 4925.89014 3.00000000 2 1
 E36_95.30    2 64 42 43 36.0550003 -0.370999992 -0.439999998 4925.58008 3.00000000 2 1
 E37_95.00    3 65 43 42 59.5509987 -0.384000003 -0.301999986 4909.62012 3.00000000 2 1
 E38_94.99    1 67 41 42 58.5509987 -0.497999996 -0.144999996 4936.37988 3.00000000 2 1
 E39_94.99    1 67 39 42 58.5509987 -0.157000005 -0.293000013 4935.66016 3.00000000 2 1
 E40_94.99    1 69 42 42 58.5509987 -0.305999994 -0.131999999 4927.35986 3.00000000 2 1
 E41_94.99    1 69 40 42 58.5509987 0.312999994 0.150000006 4929.95020 3.00000000 2 1
 E42_95.00    1 70 37 42 59.5509987 0.395999998 0.444999993 4924.56982 3.00000000 2 1
 E43_95.05    3 71 36 42 77.9919968 -0.108999997 -0.300000012 4914.33008 3.00000000 2 1
 E44_95.03    3 71 36 42 72.9919968 0.261000007 0.382999986 4929.00000 3.00000000 2 1
 E45_95.00    1 74 37 42 59.5509987 -0.298999995 -0.490000010 4917.75977 3.00000000 2 1
 E46_95.30    2 76 41 43 34.0550003 -1.60000008E-02 0.319000006 4903.72021 3.00000000 2 1
 E47_95.00    1 77 38 42 59.5509987 -0.365000010 0.435000002 4898.04980 3.00000000 2 1
 E48_95.10    2 80 37 42 97.4300003 0.248999998 -0.133000001 4893.93994 3.00000000 2 1
 E49_95.00    1 81 39 42 59.5509987 -0.412000000 -0.107000001 4895.87012 3.00000000 2 1
 E50_95.10    3 84 47 42 97.4300003 -5.40000014E-02 0.328000009 4902.64990 3.00000000 2 1
 E51_95.05    -3 94 32 42 80.9919968 -9.79999974E-02 -0.324000001 4849.62012 3.00000000 2 1
 E52_95.10    3 95 26 42 97.4300003 -0.234999999 4.69999984E-02 4861.08008 3.00000000 2 1
 E53_95.10    3 95 39 42 97.4300003 0.352999985 -0.351000011 4843.83984 3.00000000 2 1
 E54_95.10    3 100 23 42 98.4300003 0.384000003 0.377999991 4833.12012 3.00000000 2 1
 E55_95.10    2 101 33 42 98.4300003 3.70000005E-02 -0.463000000 4827.99023 3.00000000 2 1
 E56_95.11    3 104 35 42 99.4300003 -0.305999994 -0.230000004 4820.64990 3.00000000 2 1
 E57_95.06    4 107 31 42 83.9919968 -6.30000010E-02 0.317999989 4807.89990 3.00000000 2 1
 E58_95.06    3 107 31 42 83.9919968 -6.30000010E-02 0.317999989 4808.06982 3.00000000 2 1
 E59_95.11    2 110 34 42 99.4300003 -0.407000005 5.99999987E-02 4807.35010 3.00000000 2 1
 E60_95.05    -2 115 26 42 80.9919968 -0.497999996 -7.00000003E-02 4803.27979 3.00000000 2 1
 E61_95.06    3 115 26 42 83.9919968 -0.405999988 0.234999999 4807.10010 3.00000000 2 1
 E62_95.05    3 118 37 42 80.9919968 -0.192000002 6.10000007E-02 4792.20996 3.00000000 2 1
 E63_95.11    2 119 31 42 99.4300003 -0.233999997 -0.217999995 4778.39014 3.00000000 2 1
 E64_95.10    1 122 19 42 98.4300003 -0.277999997 0.490000010 4822.18994 3.00000000 2 1
 E65_95.05    3 123 43 42 80.9919968 -0.316000015 -8.79999995E-02 4799.00000 3.00000000 2 1
 E66_95.11    1 123 38 42 99.4300003 -0.127000004 0.130999997 4785.77979 3.00000000 2 1
 E67_95.11    -2 125 30 42 99.4300003 0.284000009 0.272000015 4765.91992 3.00000000 2 1
 E68_95.11    1 132 18 42 100.430000 0.128000006 -0.282000005 4776.52979 3.00000000 2 1
 E69_95.06    4 133 34 42 83.9919968 -0.333999991 -0.344000012 4757.54980 3.00000000 2 1
 E70_95.11    2 136 20 42 99.4300003 0.301999986 0.284000009 4751.56982 3.00000000 2 1
 E71_95.06    3 140 25 42 83.9919968 -0.171000004 0.349999994 4726.77979 3.00000000 2 1
 E72_95.05    2 147 21 42 80.9919968 0.421999991 -0.272000015 4723.29004 3.00000000 2 1
 E73_95.11    1 148 17 42 100.430000 0.467000008 0.333999991 4787.25000 3.00000000 2 1
 E74_95.05    2 152 20 42 80.9919968 -7.00000022E-03 0.414999992 4735.83984 3.00000000 2 1
 E75_95.11    1 153 17 42 100.430000 -0.333000004 9.79999974E-02 4816.29004 3.00000000 2 1
 RR_12        -2 40 47 -2 0.00000000E+00 1 0
 RR_12_93.09  38 92.4300003 5004.68994 3.00000000 2 1
 RR_12_94.09  40 92.4300003 5010.00000 2.00000000 2 1
 RR_10        -2 45 41 -2 0.00000000E+00 1 0
 RR_10_93.09  38 92.4300003 4961.47021 3.00000000 2 1
 RR_10_94.09  40 92.4300003 4934.00000 2.00000000 2 1
 RR_14        5 46 31 -2 0.00000000E+00 1 0
 RR_14_90.84  34 3.10999990 4936.00000 3.00000000 2 1
 RR_14_94.09  40 92.4300003 4952.00000 2.00000000 2 1
 RR_4         -2 48 40 -3 0.00000000E+00 1 0
 RR_4_70.75   16 273.489990 5020.00000 3.00000000 2 1
 RR_4_93.09   38 92.4300003 4927.83984 2.00000000 2 1
 RR_4_94.09   40 92.4300003 4941.70020 2.00000000 2 1
 RR_5         -2 48 40 -2 0.00000000E+00 1 0
 RR_5_70.75   16 273.489990 5009.00000 3.00000000 2 1
 RR_5_94.09   40 92.4300003 4941.50000 2.00000000 2 1
 RR_3         4 49 40 -3 0.00000000E+00 1 0
 RR_3_67.40   15 875.239990 4997.00000 3.00000000 2 1
 RR_3_93.09   38 92.4300003 4974.04004 2.00000000 2 1
 RR_3_94.09   40 92.4300003 4974.00000 2.00000000 2 1
 RR_2         3 50 40 -3 0.00000000E+00 1 0
 RR_2_67.40   15 875.239990 4990.00000 3.00000000 2 1
 RR_2_93.09   38 92.4300003 4949.39014 2.00000000 2 1
 RR_2_94.09   40 92.4300003 4939.00000 2.00000000 2 1
 irp_502      3 71 50 -3 0.00000000E+00 1 0
 irp_502_92.0 36 92.4300003 4870.14014 3.00000000 2 1
 irp_502_93.0 38 92.4300003 4871.60010 1.00000000 2 1
 irp_502_94.0 40 92.4300003 4868.06982 1.00000000 2 1
 irp_503      3 71 50 -3 0.00000000E+00 1 0
 irp_503_92.0 36 92.4300003 4870.20020 3.00000000 2 1
 irp_503_93.0 38 92.4300003 4871.72998 1.00000000 2 1
 irp_503_94.0 40 92.4300003 4868.22021 1.00000000 2 1
 irp_504      3 71 50 -3 0.00000000E+00 1 0
 irp_504_92.0 36 92.4300003 4872.41016 3.00000000 2 1
 irp_504_93.0 38 92.4300003 4873.49023 1.00000000 2 1
 irp_504_94.0 40 92.4300003 4870.06006 1.00000000 2 1
 irp_501      3 71 50 -3 0.00000000E+00 1 0
 irp_501_92.0 36 92.4300003 4871.74023 3.00000000 2 1
 irp_501_93.0 38 92.4300003 4873.35986 1.00000000 2 1
 irp_501_94.0 40 92.4300003 4869.37988 1.00000000 2 1
 mvmw-k changed to mvmw_k
 mvmw_k       3 73 48 -2 0.00000000E+00 1 0
 mvmw-k_93.09 changed to mvmw_k_93.09
 mvmw_k_93.09 38 92.4300003 4897.20996 3.00000000 2 1
 mvmw-k_94.09 changed to mvmw_k_94.09
 mvmw_k_94.09 40 92.4300003 4893.02002 1.00000000 2 1
 mvmw-j changed to mvmw_j
 mvmw_j       3 73 46 -2 0.00000000E+00 1 0
 mvmw-j_93.09 changed to mvmw_j_93.09
 mvmw_j_93.09 38 92.4300003 4903.25000 3.00000000 2 1
 mvmw-j_94.09 changed to mvmw_j_94.09
 mvmw_j_94.09 40 92.4300003 4899.25000 1.00000000 2 1
 NWTA3        -2 75 50 -2 0.00000000E+00 1 0
 NWTA3_93.09  38 92.4300003 4888.47998 3.00000000 2 1
 NWTA3_94.09  40 92.4300003 4887.60986 1.00000000 2 1
 krt_10_94.09 -2 75 52 40 92.4300003 0.451999992 0.407999992 4920.66016 3.00000000 2 1
 CWL-MW1A_94. changed to CWL_MW1A_94.
 CWL_MW1A_94. -2 78 53 40 92.4300003 0.499000013 -0.444000006 4935.14014 3.00000000 2 1
 CWL-MW2A_94. changed to CWL_MW2A_94.
 CWL_MW2A_94. 3 79 53 40 92.4300003 -0.449999988 -0.490999997 4935.77979 3.00000000 2 1
 SWTA3        -2 79 50 -2 0.00000000E+00 1 0
 SWTA3_93.09  38 92.4300003 4899.33008 3.00000000 2 1
 SWTA3_94.09  40 92.4300003 4894.66992 1.00000000 2 1
 RWP009_93.07 1 81 30 38 87.9919968 0.400999993 -0.351999998 4872.89990 3.00000000 2 1
 RWP026_93.07 2 82 36 38 87.9919968 -0.112000003 7.00000022E-03 4886.00000 3.00000000 2 1
 RWP032_93.07 1 82 33 38 87.9919968 0.485000014 -0.257999986 4921.29980 3.00000000 2 1
 RWP016_93.07 2 83 43 38 87.9919968 -0.107000001 -0.165999994 4878.60010 3.00000000 2 1
 RWP028_93.07 1 85 51 38 87.9919968 -0.326000005 0.101000004 5341.89990 10.0000000 2 1
 RWP013_93.07 -2 85 10 38 86.9919968 0.163000003 -0.384999990 5015.20020 3.00000000 2 1
 ECW861_93.07 2 86 19 38 87.9919968 -0.446999997 0.137999997 4849.10010 3.00000000 2 1
 RWP011_93.07 1 86 18 38 85.9919968 -0.365999997 -0.254000008 4976.39990 3.00000000 2 1
 RWP019_93.07 -2 85 42 38 87.9919968 0.463999987 0.330000013 4878.70020 3.00000000 2 1
 RWP008_93.07 1 86 25 38 87.9919968 0.284000009 -0.284000009 4871.00000 3.00000000 2 1
 RWP540_93.07 1 87 33 38 86.9919968 -7.69999996E-02 -0.233999997 4865.89990 3.00000000 2 1
 ECW557_93.07 -2 88 36 38 87.9919968 -0.128000006 0.112999998 4866.39990 3.00000000 2 1
 ECW001_93.08 1 89 43 38 88.9919968 0.104000002 -0.381999999 4861.89990 3.00000000 2 1
 RWP015_93.07 1 89 16 38 85.9919968 0.397000015 0.395999998 4969.20020 3.00000000 2 1
 RWP027_93.07 2 90 10 38 86.9919968 -0.407000005 -0.153999999 4991.39990 3.00000000 2 1
 ECW007_93.08 1 90 47 38 88.9919968 -2.30000000E-02 0.377999991 4833.20020 3.00000000 2 1
 RWP031_93.07 1 90 28 38 86.9919968 0.248999998 2.09999997E-02 4878.20020 3.00000000 2 1
 Chical_93.08 1 90 41 38 88.9919968 0.195999995 0.264999986 4867.89990 3.00000000 2 1
 ECW006_93.07 -2 91 18 38 85.9919968 -8.00000038E-03 0.123000003 4842.79980 3.00000000 2 1
 RWP021_93.08 1 92 52 38 88.9919968 -0.425000012 -0.223000005 5350.89990 10.0000000 2 1
 Solar_93.07  -2 92 31 38 87.9919968 -0.250000000 -0.444000006 4840.79980 3.00000000 2 1
 RWP020_93.08 -2 92 45 38 88.9919968 -0.305999994 6.70000017E-02 4842.20020 3.00000000 2 1
 RWP005_93.07 1 92 26 38 86.9919968 0.481999993 -0.164000005 4842.89990 3.00000000 2 1
 RWP001_93.08 1 94 49 38 88.9919968 -7.80000016E-02 0.330000013 4844.29980 3.00000000 2 1
 RWP003_93.08 -2 94 45 38 88.9919968 0.148000002 -0.317999989 4832.10010 3.00000000 2 1
 RBB5-M changed to RBB5_M
 RBB5_M       3 72 40 -3 0.00000000E+00 1 0
 RBB5-M_W94 changed to RBB5_M_W94
 RBB5_M_W94   41 0.00000000E+00 4922.27002 3.00000000 2 1
 RBB5-M_I94 changed to RBB5_M_I94
 RBB5_M_I94   42 0.00000000E+00 4922.18018 1.00000000 2 1
 RBB5-M_W97 changed to RBB5_M_W97
 RBB5_M_W97   47 0.00000000E+00 4921.81982 1.00000000 2 1
 RBB5-S changed to RBB5_S
 RBB5_S       1 72 40 -4 0.00000000E+00 1 0
 RBB5-S_W94 changed to RBB5_S_W94
 RBB5_S_W94   41 0.00000000E+00 4924.54980 3.00000000 2 1
 RBB5-S_I94 changed to RBB5_S_I94
 RBB5_S_I94   42 0.00000000E+00 4924.14014 1.00000000 2 1
 RBB5-S_W95 changed to RBB5_S_W95
 RBB5_S_W95   43 0.00000000E+00 4924.77979 1.00000000 2 1
 RBB5-S_W97 changed to RBB5_S_W97
 RBB5_S_W97   47 0.00000000E+00 4923.87988 1.00000000 2 1
 RBB5-D changed to RBB5_D
 RBB5_D       -2 72 40 -4 0.00000000E+00 1 0
 RBB5-D_W94 changed to RBB5_D_W94
 RBB5_D_W94   41 0.00000000E+00 4917.45996 3.00000000 2 1
 RBB5-D_I94 changed to RBB5_D_I94
 RBB5_D_I94   42 0.00000000E+00 4917.10986 1.00000000 2 1
 RBB5-D_W95 changed to RBB5_D_W95
 RBB5_D_W95   43 0.00000000E+00 4917.37988 1.00000000 2 1
 RBB5-D_W97 changed to RBB5_D_W97
 RBB5_D_W97   47 0.00000000E+00 4916.93994 1.00000000 2 1
 SC1          -2 58 49 -7 0.00000000E+00 1 0
 SC1_W97      47 0.00000000E+00 4898.50977 3.00000000 2 1
 SC1_I97      48 0.00000000E+00 4889.81982 1.00000000 2 1
 SC1_W98      49 0.00000000E+00 4894.08984 1.00000000 2 1
 SC1_I98      50 0.00000000E+00 4886.68994 1.00000000 2 1
 SC1_W99      51 0.00000000E+00 4892.64014 1.00000000 2 1
 SC1_I99      52 0.00000000E+00 4886.27002 1.00000000 2 1
 SC1_W00      52 135.248993 4891.81982 1.00000000 2 1
 SC2          -2 58 49 -7 0.00000000E+00 1 0
 SC2_W97      47 0.00000000E+00 4893.06006 3.00000000 2 1
 SC2_I97      48 0.00000000E+00 4891.02002 1.00000000 2 1
 SC2_W98      49 0.00000000E+00 4893.18994 1.00000000 2 1
 SC2_I98      50 0.00000000E+00 4890.06982 1.00000000 2 1
 SC2_W99      51 0.00000000E+00 4891.83008 1.00000000 2 1
 SC2_I99      52 0.00000000E+00 4888.77979 1.00000000 2 1
 SC2_W00      52 135.248993 4890.10986 1.00000000 2 1
 DS1          -2 65 47 -6 0.00000000E+00 1 0
 DS1_W97      47 0.00000000E+00 4880.14014 3.00000000 2 1
 DS1_I97      48 0.00000000E+00 4872.54980 1.00000000 2 1
 DS1_W98      49 0.00000000E+00 4879.66992 1.00000000 2 1
 DS1_W99      51 0.00000000E+00 4875.91992 1.00000000 2 1
 DS1_I99      52 0.00000000E+00 4866.74023 1.00000000 2 1
 DS1_W00      52 135.248993 4875.68994 1.00000000 2 1
 DS2          5 65 47 -7 0.00000000E+00 1 0
 DS2_W97      47 0.00000000E+00 4869.43018 3.00000000 2 1
 DS2_I97      48 0.00000000E+00 4863.41992 1.00000000 2 1
 DS2_W98      49 0.00000000E+00 4868.81006 1.00000000 2 1
 DS2_I98      50 0.00000000E+00 4858.50977 1.00000000 2 1
 DS2_W99      51 0.00000000E+00 4865.77002 1.00000000 2 1
 DS2_I99      52 0.00000000E+00 4858.20996 1.00000000 2 1
 DS2_W00      52 135.248993 4865.41992 1.00000000 2 1
 DS3          3 65 47 -5 0.00000000E+00 1 0
 DS3_W97      47 0.00000000E+00 4862.66992 3.00000000 2 1
 DS3_I97      48 0.00000000E+00 4860.70020 1.00000000 2 1
 DS3_W99      51 0.00000000E+00 4860.58984 1.00000000 2 1
 DS3_I99      52 0.00000000E+00 4858.72021 1.00000000 2 1
 DS3_W00      52 135.248993 4859.95020 1.00000000 2 1
 HR1          -2 53 41 -7 0.00000000E+00 1 0
 HR1_W97      47 0.00000000E+00 4943.66992 3.00000000 2 1
 HR1_I97      48 0.00000000E+00 4941.91016 1.00000000 2 1
 HR1_W98      49 0.00000000E+00 4943.18994 1.00000000 2 1
 HR1_I98      50 0.00000000E+00 4939.81006 1.00000000 2 1
 HR1_W99      51 0.00000000E+00 4941.08008 1.00000000 2 1
 HR1_I99      52 0.00000000E+00 4939.93018 1.00000000 2 1
 HR1_W00      52 135.248993 4941.14990 1.00000000 2 1
 HR2          -2 53 41 -5 0.00000000E+00 1 0
 HR2_W97      47 0.00000000E+00 4947.04004 3.00000000 2 1
 HR2_I98      50 0.00000000E+00 4943.37012 1.00000000 2 1
 HR2_W99      51 0.00000000E+00 4944.47998 1.00000000 2 1
 HR2_I99      52 0.00000000E+00 4944.12012 1.00000000 2 1
 HR2_W00      52 135.248993 4944.66016 1.00000000 2 1
 HR3          -2 53 41 -7 0.00000000E+00 1 0
 HR3_W97      47 0.00000000E+00 4958.66016 3.00000000 2 1
 HR3_I97      48 0.00000000E+00 4957.79004 1.00000000 2 1
 HR3_W98      49 0.00000000E+00 4957.72998 1.00000000 2 1
 HR3_I98      50 0.00000000E+00 4956.79980 1.00000000 2 1
 HR3_W99      51 0.00000000E+00 4956.31006 1.00000000 2 1
 HR3_I99      52 0.00000000E+00 4958.25000 1.00000000 2 1
 HR3_W00      52 135.248993 4958.60986 1.00000000 2 1
 HR4          -2 53 41 -6 0.00000000E+00 1 0
 HR4_W97      47 0.00000000E+00 4954.29004 3.00000000 2 1
 HR4_I97      48 0.00000000E+00 4953.43994 1.00000000 2 1
 HR4_I98      50 0.00000000E+00 4952.14990 1.00000000 2 1
 HR4_W99      51 0.00000000E+00 4952.06982 1.00000000 2 1
 HR4_I99      52 0.00000000E+00 4952.02002 1.00000000 2 1
 HR4_W00      52 135.248993 4952.20996 1.00000000 2 1
 HR5          -2 53 41 -7 0.00000000E+00 1 0
 HR5_W97      47 0.00000000E+00 4956.87988 3.00000000 2 1
 HR5_I97      48 0.00000000E+00 4956.14990 1.00000000 2 1
 HR5_W98      49 0.00000000E+00 4956.14014 1.00000000 2 1
 HR5_I98      50 0.00000000E+00 4955.14990 1.00000000 2 1
 HR5_W99      51 0.00000000E+00 4954.75000 1.00000000 2 1
 HR5_I99      52 0.00000000E+00 4955.52979 1.00000000 2 1
 HR5_W00      52 135.248993 4955.77002 1.00000000 2 1
 HR6          3 53 41 -7 0.00000000E+00 1 0
 HR6_W97      47 0.00000000E+00 4957.43018 3.00000000 2 1
 HR6_I97      48 0.00000000E+00 4956.72998 1.00000000 2 1
 HR6_W98      49 0.00000000E+00 4956.68018 1.00000000 2 1
 HR6_I98      50 0.00000000E+00 4955.83008 1.00000000 2 1
 HR6_W99      51 0.00000000E+00 4955.35986 1.00000000 2 1
 HR6_I99      52 0.00000000E+00 4956.45996 1.00000000 2 1
 HR6_W00      52 135.248993 4956.64990 1.00000000 2 1
 WB1          -2 63 38 -7 0.00000000E+00 1 0
 WB1_W97      47 0.00000000E+00 4934.50000 3.00000000 2 1
 WB1_I97      48 0.00000000E+00 4931.20020 1.00000000 2 1
 WB1_W98      49 0.00000000E+00 4938.56982 1.00000000 2 1
 WB1_I98      50 0.00000000E+00 4925.79980 1.00000000 2 1
 WB1_W99      51 0.00000000E+00 4933.91016 1.00000000 2 1
 WB1_I99      52 0.00000000E+00 4929.25977 1.00000000 2 1
 WB1_W00      52 135.248993 4935.93018 1.00000000 2 1
 WB2          -2 63 38 -7 0.00000000E+00 1 0
 WB2_W97      47 0.00000000E+00 4941.62012 3.00000000 2 1
 WB2_I97      48 0.00000000E+00 4939.87988 1.00000000 2 1
 WB2_W98      49 0.00000000E+00 4944.00000 1.00000000 2 1
 WB2_I98      50 0.00000000E+00 4931.58008 1.00000000 2 1
 WB2_W99      51 0.00000000E+00 4938.68994 1.00000000 2 1
 WB2_I99      52 0.00000000E+00 4939.83984 1.00000000 2 1
 WB2_W00      52 135.248993 4943.06006 1.00000000 2 1
 WB3          4 63 38 -6 0.00000000E+00 1 0
[...]
 INTLA6_98.25 49 18.0599995 4941.14014 1.00000000 2 1
 INTLA6_98.92 50 31.5499992 4939.43018 1.00000000 2 1
 INTLA6_99.25 51 18.0599995 4936.70020 1.00000000 2 1
 INTLB1       -2 51 43 -9 0.00000000E+00 1 0
 INTLB1_95.25 43 18.0599995 4989.89014 3.00000000 2 1
 INTLB1_95.84 44 1.11000001 4990.58984 1.00000000 2 1
 INTLB1_96.25 45 18.0599995 4990.10986 1.00000000 2 1
 INTLB1_96.84 46 1.11000001 4990.39014 1.00000000 2 1
 INTLB1_97.25 47 18.0599995 4989.58008 1.00000000 2 1
 INTLB1_97.84 48 1.11000001 4990.10010 1.00000000 2 1
 INTLB1_98.25 49 18.0599995 4990.20996 1.00000000 2 1
 INTLB1_98.92 50 31.5499992 4987.70020 1.00000000 2 1
 INTLB1_99.25 51 18.0599995 4988.99023 1.00000000 2 1
 INTLB2       -2 51 43 -9 0.00000000E+00 1 0
 INTLB2_95.25 43 18.0599995 4972.68018 3.00000000 2 1
 INTLB2_95.84 44 1.11000001 4971.16016 1.00000000 2 1
 INTLB2_96.25 45 18.0599995 4971.06982 1.00000000 2 1
 INTLB2_96.84 46 1.11000001 4970.81006 1.00000000 2 1
 INTLB2_97.25 47 18.0599995 4969.85010 1.00000000 2 1
 INTLB2_97.84 48 1.11000001 4970.68994 1.00000000 2 1
 INTLB2_98.25 49 18.0599995 4971.39990 1.00000000 2 1
 INTLB2_98.92 50 31.5499992 4969.91992 1.00000000 2 1
 INTLB2_99.25 51 18.0599995 4969.70020 1.00000000 2 1
 INTLB3       -2 51 43 -9 0.00000000E+00 1 0
 INTLB3_95.25 43 18.0599995 4956.14014 3.00000000 2 1
 INTLB3_95.84 44 1.11000001 4948.27002 1.00000000 2 1
 INTLB3_96.25 45 18.0599995 4951.06982 1.00000000 2 1
 INTLB3_96.84 46 1.11000001 4948.00977 1.00000000 2 1
 INTLB3_97.25 47 18.0599995 4947.37012 1.00000000 2 1
 INTLB3_97.84 48 1.11000001 4948.12012 1.00000000 2 1
 INTLB3_98.25 49 18.0599995 4948.83008 1.00000000 2 1
 INTLB3_98.92 50 31.5499992 4944.91016 1.00000000 2 1
 INTLB3_99.25 51 18.0599995 4946.97021 1.00000000 2 1
 SADEP        -2 25 41 -4 0.00000000E+00 1 0
 SADEP_85.63  27 229.050003 5315.45020 3.00000000 2 1
 SADEP_86.01  28 1.99000001 5315.45020 1.00000000 2 1
 SADEP_87.08  29 27.9899998 5316.72021 1.00000000 2 1
 SADEP_87.89  29 324.359985 5316.58008 1.00000000 2 1
 SAMID        -2 25 41 -4 0.00000000E+00 1 0
 SAMID_85.63  27 229.050003 5305.85986 3.00000000 2 1
 SAMID_86.01  28 1.99000001 5305.70996 1.00000000 2 1
 SAMID_87.08  29 27.9899998 5305.75977 1.00000000 2 1
 SAMID_87.89  29 324.359985 5305.12988 1.00000000 2 1
 SATOP        3 25 41 -4 0.00000000E+00 1 0
 SATOP_85.63  27 229.050003 5290.60010 3.00000000 2 1
 SATOP_86.01  28 1.99000001 5290.91992 1.00000000 2 1
 SATOP_87.08  29 27.9899998 5291.41992 1.00000000 2 1
 SATOP_87.89  29 324.359985 5291.20020 1.00000000 2 1
 ZIADEP       -2 20 35 -4 0.00000000E+00 1 0
 ZIADEP_85.63 27 229.050003 5382.41992 3.00000000 2 1
 ZIADEP_86.01 28 1.99000001 5382.68994 1.00000000 2 1
 ZIADEP_87.08 29 27.9899998 5382.77979 1.00000000 2 1
 ZIADEP_87.89 29 324.359985 5382.54980 1.00000000 2 1
 ZIAMID       -2 20 35 -4 0.00000000E+00 1 0
 ZIAMID_85.63 27 229.050003 5381.41992 3.00000000 2 1
 ZIAMID_86.01 28 1.99000001 5382.12988 1.00000000 2 1
 ZIAMID_87.08 29 27.9899998 5382.25977 1.00000000 2 1
 ZIAMID_87.89 29 324.359985 5381.97998 1.00000000 2 1
 ZIATOP       -2 20 35 -4 0.00000000E+00 1 0
 ZIATOP_85.63 27 229.050003 5377.52002 3.00000000 2 1
 ZIATOP_86.01 28 1.99000001 5377.18018 1.00000000 2 1
 ZIATOP_87.08 29 27.9899998 5377.56982 1.00000000 2 1
 ZIATOP_87.89 29 324.359985 5377.50000 1.00000000 2 1

RVOB FLOW OBSERVATIONS,  INPUT READ FROM UNIT  35
 # Flow observations for River-observation package
 #  Abrev RG_B-RB: 34 cells in Rio Grande reach from Bernalillo to Rio Bravo
 #   gages; includes river and riverside drains. The observation for this reach
 #   is a median value of 83.9 cfs (7,250,000 ft**3/day) for Dec. - Feb. of
 #   1996-99 with a standard deviation of 58.6 cfs (5,060,000 ft**3/day).  This
 #   observation is assumed to apply to all the 1990-2000 winter stess periods
 #   at the end of Feb.
 #  92W ==> winter 1991-92 stress period.
 #
 #  Cochiti Lake observation OBSNAM begin with 'c'.  They are:
 #    When stage is 5320-5340 ft, seepage from lake to aquifer is 2,000 AF/month
 #    (2,860,000 ft**3/day); and when stage is 5390-5410 ft, seepage is
 #    15,000 AF/month (21,500,000 ft**3/day).
 #    Use coef of variation at 50 % for stats
 #    Didn't have any average conditions > 5390.  Used average (8500 ft**3/day
 #    for stage 5340-5390 ft.

 NUMBER OF CELL GROUPS:    8

   GROUP NUMBER:   1   BOUNDARY TYPE: RVOB

                                        OBSERVED
                    REFER.                FLOW
       OBSERVATION  STRESS    TIME     GAIN (-) OR              STATISTIC   PLOT
  OBS#    NAME      PERIOD   OFFSET     LOSS (+)    STATISTIC     TYPE      SYM.
 RG_B-RB90W changed to RG_B_RB90W
     1 RG_B_RB90W      32    59.00      0.7250E+07  0.5060E+07           1     0
 RG_B-RB91W changed to RG_B_RB91W
     2 RG_B_RB91W      34    120.0      0.7250E+07  0.5060E+07           1     1
 RG_B-RB92W changed to RG_B_RB92W
     3 RG_B_RB92W      36    120.0      0.7250E+07  0.5060E+07           1     2
 RG_B-RB93W changed to RG_B_RB93W
     4 RG_B_RB93W      38    120.0      0.7250E+07  0.5060E+07           1     3
 RG_B-RB94W changed to RG_B_RB94W
     5 RG_B_RB94W      40    120.0      0.7250E+07  0.5060E+07           1     4
 RG_B-RB95W changed to RG_B_RB95W
     6 RG_B_RB95W      42    120.0      0.7250E+07  0.5060E+07           1     5
 RG_B-RB96W changed to RG_B_RB96W
     7 RG_B_RB96W      44    120.0      0.7250E+07  0.5060E+07           1     6
 RG_B-RB97W changed to RG_B_RB97W
     8 RG_B_RB97W      46    120.0      0.7250E+07  0.5060E+07           1     7
 RG_B-RB98W changed to RG_B_RB98W
     9 RG_B_RB98W      48    120.0      0.7250E+07  0.5060E+07           1     8
    10 RG_B_RB98S      49    120.0      0.7250E+07  0.5060E+07           1     8
 RG_B-RB99W changed to RG_B_RB99W
    11 RG_B_RB99W      50    120.0      0.7250E+07  0.5060E+07           1     9
 RG_B-RB99S changed to RG_B_RB99S
    12 RG_B_RB99S      51    120.0      0.7250E+07  0.5060E+07           1    10
 RG_B-RB00W changed to RG_B_RB00W
    13 RG_B_RB00W      52    120.0      0.7250E+07  0.5060E+07           1    10

       LAYER  ROW  COLUMN    FACTOR
        1     44      47      0.62
        1     45      47      1.00
        1     46      47      1.00
        1     47      47      1.00
        1     48      48      1.00
        1     49      48      1.00
        1     50      47      1.00
        1     51      46      1.00
        1     51      47      1.00
        1     52      45      1.00
        1     53      43      1.00
        1     53      44      1.00
        1     54      42      1.00
        1     54      43      1.00
        1     55      42      1.00
        1     56      42      1.00
        1     57      41      1.00
        1     58      40      1.00
        1     59      39      1.00
        1     59      40      1.00
        1     60      39      1.00
        1     61      38      1.00
        1     62      38      1.00
        1     63      38      1.00
        1     64      38      1.00
        1     65      39      1.00
        1     66      40      1.00
        1     67      40      1.00
        1     67      41      1.00
        1     68      41      1.00
        1     69      41      1.00
        1     70      41      1.00
        1     71      41      1.00
        1     72      40      0.19
        1     44      47      0.62
        1     45      47      1.00
        1     46      47      1.00
        1     47      47      1.00
        1     48      48      1.00
        1     49      48      1.00
        1     50      47      1.00
        1     51      46      1.00
        1     51      47      1.00
        1     52      45      1.00
        1     53      43      1.00
        1     53      44      1.00
        1     54      42      1.00
        1     54      43      1.00
        1     55      42      1.00
        1     56      42      1.00
        1     57      41      1.00
        1     58      40      1.00
        1     59      39      1.00
        1     59      40      1.00
        1     60      39      1.00
        1     65      39      1.00
        1     66      40      1.00
        1     67      40      1.00
        1     67      41      1.00
        1     68      41      1.00
        1     69      41      1.00
        1     70      41      1.00
        1     71      41      1.00
        1     72      40      0.19
        1     52      45      1.00
        1     53      43      1.00
        1     53      44      1.00
        1     44      47      0.62
        1     45      47      1.00
        1     46      47      1.00
        1     47      47      1.00
        1     48      48      1.00
        1     49      48      1.00
        1     50      47      1.00
        1     51      46      1.00
        1     51      47      1.00
        1     52      45      1.00
        1     53      43      1.00
        1     53      44      1.00
        1     54      43      1.00
        1     55      42      1.00
        1     56      42      1.00
        1     57      41      1.00
        1     58      40      1.00
        1     59      40      1.00
        1     60      39      1.00
        1     61      38      1.00
        1     62      38      1.00
        1     63      38      1.00
        1     64      38      1.00
        1     65      39      1.00
        1     66      40      1.00
        1     67      41      1.00
        1     68      41      1.00
        1     69      41      1.00
        1     70      41      1.00
        1     71      41      1.00
        1     72      40      0.19
        1     47      47      1.00
        1     48      48      1.00
        1     49      48      1.00
        1     61      38      1.00
        1     62      38      1.00
        1     63      38      1.00
        1     64      38      1.00
        1     65      39      1.00

   GROUP NUMBER:   2   BOUNDARY TYPE: RVOB

                                        OBSERVED
                    REFER.                FLOW
       OBSERVATION  STRESS    TIME     GAIN (-) OR              STATISTIC   PLOT
  OBS#    NAME      PERIOD   OFFSET     LOSS (+)    STATISTIC     TYPE      SYM.
 c5297-75 changed to c5297_75
     1 c5297_75        17    182.0      0.1400E+07  0.5000               2     4

       LAYER  ROW  COLUMN    FACTOR
        1      6      72      0.00
        1      1      74      1.00
        1      2      73      1.00
        1      3      72      1.00
        1      3      73      1.00
        1      4      72      1.00
        1      5      72      1.00
        1      6      72      1.00
        1      6      73      1.00
        1      7      72      1.00
        1      7      73      1.00

   GROUP NUMBER:   3   BOUNDARY TYPE: RVOB

                                        OBSERVED
                    REFER.                FLOW
       OBSERVATION  STRESS    TIME     GAIN (-) OR              STATISTIC   PLOT
  OBS#    NAME      PERIOD   OFFSET     LOSS (+)    STATISTIC     TYPE      SYM.
 c5323-76 changed to c5323_76
     1 c5323_76        18    182.0      0.2900E+07  0.5000               2     4
 c5323-77 changed to c5323_77
     2 c5323_77        19    182.0      0.2900E+07  0.5000               2     4
 c5323-78 changed to c5323_78
     3 c5323_78        20    182.0      0.2900E+07  0.5000               2     4
 c5323-80 changed to c5323_80
     4 c5323_80        22    182.0      0.2900E+07  0.5000               2     4
 c5223-81 changed to c5223_81
     5 c5223_81        23    182.0      0.2900E+07  0.5000               2     4
 c5323-83 changed to c5323_83
     6 c5323_83        24    182.0      0.2900E+07  0.5000               2     4

       LAYER  ROW  COLUMN    FACTOR
        1      6      72      0.00
        1      1      74      1.00
        1      2      73      1.00
        1      3      72      1.00
        1      3      73      1.00
        1      4      72      1.00
        1      5      72      1.00
        1      5      73      1.00
        1      6      72      1.00
        1      6      73      1.00
        1      7      72      1.00
        1      7      73      1.00

   GROUP NUMBER:   4   BOUNDARY TYPE: RVOB

                                        OBSERVED
                    REFER.                FLOW
       OBSERVATION  STRESS    TIME     GAIN (-) OR              STATISTIC   PLOT
  OBS#    NAME      PERIOD   OFFSET     LOSS (+)    STATISTIC     TYPE      SYM.
 c5331-79 changed to c5331_79
     1 c5331_79        21    182.0      0.2900E+07  0.5000               2     4
 c5331-83 changed to c5331_83
     2 c5331_83        25    182.0      0.2900E+07  0.5000               2     4
 c5331-84 changed to c5331_84
     3 c5331_84        26    182.0      0.2900E+07  0.5000               2     4
 c5331-89 changed to c5331_89
     4 c5331_89        31    182.0      0.2900E+07  0.5000               2     4
 c5331-90w changed to c5331_90w
     5 c5331_90w       32    59.00      0.2900E+07  0.5000               2     4
 c5331-90s changed to c5331_90s
     6 c5331_90s       33    115.0      0.2900E+07  0.5000               2     4

       LAYER  ROW  COLUMN    FACTOR
        1      6      72      0.00
        1      1      74      1.00
        1      2      73      1.00
        1      3      72      1.00
        1      3      73      1.00
        1      4      72      1.00
        1      5      72      1.00
        1      5      73      1.00
        1      6      72      1.00
        1      6      73      1.00
        1      7      72      1.00
        1      7      73      1.00

   GROUP NUMBER:   5   BOUNDARY TYPE: RVOB

                                        OBSERVED
                    REFER.                FLOW
       OBSERVATION  STRESS    TIME     GAIN (-) OR              STATISTIC   PLOT
  OBS#    NAME      PERIOD   OFFSET     LOSS (+)    STATISTIC     TYPE      SYM.
 c5340-90-91w changed to c5340_90_91w
     1 c5340_90_91w    34    68.00      0.2900E+07  0.5000               2     4
 c5340-91s changed to c5340_91s
     2 c5340_91s       35    115.0      0.2900E+07  0.5000               2     4
 c5340-91-92w changed to c5340_91_92w
     3 c5340_91_92w    36    68.00      0.2900E+07  0.5000               2     4
 c5340-92s changed to c5340_92s
     4 c5340_92s       37    115.0      0.2900E+07  0.5000               2     4
 c5340-92-93w changed to c5340_92_93w
     5 c5340_92_93w    38    68.00      0.2900E+07  0.5000               2     4
 c5340-93s changed to c5340_93s
     6 c5340_93s       39    115.0      0.2900E+07  0.5000               2     4
 c5340-93-94w changed to c5340_93_94w
     7 c5340_93_94w    40    68.00      0.2900E+07  0.5000               2     4
 c5340-94s changed to c5340_94s
     8 c5340_94s       41    115.0      0.2900E+07  0.5000               2     4
 c5340-94-95w changed to c5340_94_95w
     9 c5340_94_95w    42    68.00      0.2900E+07  0.5000               2     4
 c5340-95s changed to c5340_95s
    10 c5340_95s       43    115.0      0.2900E+07  0.5000               2     4
 c5340-95-96w changed to c5340_95_96w
    11 c5340_95_96w    44    68.00      0.2900E+07  0.5000               2     4
 c5340-96s changed to c5340_96s
    12 c5340_96s       45    115.0      0.2900E+07  0.5000               2     4
 c5340-96-97w changed to c5340_96_97w
    13 c5340_96_97w    46    68.00      0.2900E+07  0.5000               2     4
 c5340-97s changed to c5340_97s
    14 c5340_97s       47    115.0      0.2900E+07  0.5000               2     4
 c5340-97-98w changed to c5340_97_98w
    15 c5340_97_98w    48    68.00      0.2900E+07  0.5000               2     4
 c5340-98s changed to c5340_98s
    16 c5340_98s       49    115.0      0.2900E+07  0.5000               2     4
 c5340-98-99w changed to c5340_98_99w
    17 c5340_98_99w    50    68.00      0.2900E+07  0.5000               2     4
 c5340-99s changed to c5340_99s
    18 c5340_99s       51    115.0      0.2900E+07  0.5000               2     4
 c5340-99-00w changed to c5340_99_00w
    19 c5340_99_00w    52    120.0      0.2900E+07  0.5000               2     4

       LAYER  ROW  COLUMN    FACTOR
        1      6      72      0.00
        1      1      74      1.00
        1      2      73      1.00
        1      3      72      1.00
        1      3      73      1.00
        1      4      72      1.00
        1      5      72      1.00
        1      5      73      1.00
        1      6      71      1.00
        1      6      72      1.00
        1      6      73      1.00
        1      7      72      1.00
        1      7      73      1.00

   GROUP NUMBER:   6   BOUNDARY TYPE: RVOB

                                        OBSERVED
                    REFER.                FLOW
       OBSERVATION  STRESS    TIME     GAIN (-) OR              STATISTIC   PLOT
  OBS#    NAME      PERIOD   OFFSET     LOSS (+)    STATISTIC     TYPE      SYM.
 c5348-88 changed to c5348_88
     1 c5348_88        30    182.0      0.2900E+07  0.5000               2     4

       LAYER  ROW  COLUMN    FACTOR
        1      6      72      0.00
        1      1      74      1.00
        1      2      73      1.00
        1      3      72      1.00
        1      3      73      1.00
        1      4      72      1.00
        1      4      73      1.00
        1      5      72      1.00
        1      5      73      1.00
        1      6      71      1.00
        1      6      72      1.00
        1      6      73      1.00
        1      7      72      1.00
        1      7      73      1.00

   GROUP NUMBER:   7   BOUNDARY TYPE: RVOB

                                        OBSERVED
                    REFER.                FLOW
       OBSERVATION  STRESS    TIME     GAIN (-) OR              STATISTIC   PLOT
  OBS#    NAME      PERIOD   OFFSET     LOSS (+)    STATISTIC     TYPE      SYM.
 c5368-86 changed to c5368_86
     1 c5368_86        28    182.0      0.1200E+08  0.5000               2     4

       LAYER  ROW  COLUMN    FACTOR
        1      6      72      0.00
        1      1      74      1.00
        1      2      73      1.00
        1      3      72      1.00
        1      3      73      1.00
        1      4      72      1.00
        1      4      73      1.00
        1      5      71      1.00
        1      5      72      1.00
        1      5      73      1.00
        1      6      72      1.00
        1      6      73      1.00
        1      6      74      1.00
        1      7      72      1.00
        1      7      73      1.00

   GROUP NUMBER:   8   BOUNDARY TYPE: RVOB

                                        OBSERVED
                    REFER.                FLOW
       OBSERVATION  STRESS    TIME     GAIN (-) OR              STATISTIC   PLOT
  OBS#    NAME      PERIOD   OFFSET     LOSS (+)    STATISTIC     TYPE      SYM.
 c5378-85 changed to c5378_85
     1 c5378_85        27    182.0      0.1200E+08  0.5000               2     4
 c5378-87 changed to c5378_87
     2 c5378_87        29    182.0      0.1200E+08  0.5000               2     4

       LAYER  ROW  COLUMN    FACTOR
        1      6      72      0.00
        1      1      74      1.00
        1      2      73      1.00
        1      3      72      1.00
        1      3      73      1.00
        1      4      72      1.00
        1      4      73      1.00
        1      5      71      1.00
        1      5      72      1.00
        1      5      73      1.00
        1      6      72      1.00
        1      6      73      1.00
        1      6      74      1.00
        1      7      72      1.00
        1      7      73      1.00
